$ Spice netlist generated by v2lvs
$ v2013.3_28.19    Tue Sep 3 16:44:15 PDT 2013

.SUBCKT b14_ras U3352 U3351 U3350 U3349 U3348 U3347 U3346 U3345 U3344 U3343 
+ U3342 U3341 U3340 U3339 U3338 U3337 U3336 U3335 U3334 U3333 U3332 U3331 U3330 
+ U3329 U3328 U3327 U3326 U3325 U3324 U3323 U3322 U3321 U3458 U3459 U3320 U3319 
+ U3318 U3317 U3316 U3315 U3314 U3313 U3312 U3311 U3310 U3309 U3308 U3307 U3306 
+ U3305 U3304 U3303 U3302 U3301 U3300 U3299 U3298 U3297 U3296 U3295 U3294 U3293 
+ U3292 U3291 U3467 U3469 U3471 U3473 U3475 U3477 U3479 U3481 U3483 U3485 U3487 
+ U3489 U3491 U3493 U3495 U3497 U3499 U3501 U3503 U3505 U3506 U3507 U3508 U3509 
+ U3510 U3511 U3512 U3513 U3514 U3515 U3516 U3517 U3518 U3519 U3520 U3521 U3522 
+ U3523 U3524 U3525 U3526 U3527 U3528 U3529 U3530 U3531 U3532 U3533 U3534 U3535 
+ U3536 U3537 U3538 U3539 U3540 U3541 U3542 U3543 U3544 U3545 U3546 U3547 U3548 
+ U3549 U3290 U3289 U3288 U3287 U3286 U3285 U3284 U3283 U3282 U3281 U3280 U3279 
+ U3278 U3277 U3276 U3275 U3274 U3273 U3272 U3271 U3270 U3269 U3268 U3267 U3266 
+ U3265 U3264 U3263 U3262 U3354 U3261 U3260 U3259 U3258 U3257 U3256 U3255 U3254 
+ U3253 U3252 U3251 U3250 U3249 U3248 U3247 U3246 U3245 U3244 U3243 U3242 U3241 
+ U3240 U3550 U3551 U3552 U3553 U3554 U3555 U3556 U3557 U3558 U3559 U3560 U3561 
+ U3562 U3563 U3564 U3565 U3566 U3567 U3568 U3569 U3570 U3571 U3572 U3573 U3574 
+ U3575 U3576 U3577 U3578 U3579 U3580 U3581 U3239 U3238 U3237 U3236 U3235 U3234 
+ U3233 U3232 U3231 U3230 U3229 U3228 U3227 U3226 U3225 U3224 U3223 U3222 U3221 
+ U3220 U3219 U3218 U3217 U3216 U3215 U3214 U3213 U3212 U3211 U3210 U3149 U3148 
+ U4043 ADDR_REG_19_ ADDR_REG_18_ ADDR_REG_17_ ADDR_REG_16_ ADDR_REG_15_ 
+ ADDR_REG_14_ ADDR_REG_13_ ADDR_REG_12_ ADDR_REG_11_ ADDR_REG_10_ ADDR_REG_9_ 
+ ADDR_REG_8_ ADDR_REG_7_ ADDR_REG_6_ ADDR_REG_5_ ADDR_REG_4_ ADDR_REG_3_ 
+ ADDR_REG_2_ ADDR_REG_1_ ADDR_REG_0_ DATAO_REG_31_ DATAO_REG_30_ DATAO_REG_29_ 
+ DATAO_REG_28_ DATAO_REG_27_ DATAO_REG_26_ DATAO_REG_25_ DATAO_REG_24_ 
+ DATAO_REG_23_ DATAO_REG_22_ DATAO_REG_21_ DATAO_REG_20_ DATAO_REG_19_ 
+ DATAO_REG_18_ DATAO_REG_17_ DATAO_REG_16_ DATAO_REG_15_ DATAO_REG_14_ 
+ DATAO_REG_13_ DATAO_REG_12_ DATAO_REG_11_ DATAO_REG_10_ DATAO_REG_9_ 
+ DATAO_REG_8_ DATAO_REG_7_ DATAO_REG_6_ DATAO_REG_5_ DATAO_REG_4_ DATAO_REG_3_ 
+ DATAO_REG_2_ DATAO_REG_1_ DATAO_REG_0_ RD_REG WR_REG IR_REG_0_ IR_REG_1_ 
+ IR_REG_2_ IR_REG_3_ IR_REG_4_ IR_REG_5_ IR_REG_6_ IR_REG_7_ IR_REG_8_ 
+ IR_REG_9_ IR_REG_10_ IR_REG_11_ IR_REG_12_ IR_REG_13_ IR_REG_14_ IR_REG_15_ 
+ IR_REG_16_ IR_REG_17_ IR_REG_18_ IR_REG_19_ IR_REG_20_ IR_REG_21_ IR_REG_22_ 
+ IR_REG_23_ IR_REG_24_ IR_REG_25_ IR_REG_26_ IR_REG_27_ IR_REG_28_ IR_REG_29_ 
+ IR_REG_30_ IR_REG_31_ D_REG_0_ D_REG_1_ D_REG_2_ D_REG_3_ D_REG_4_ D_REG_5_ 
+ D_REG_6_ D_REG_7_ D_REG_8_ D_REG_9_ D_REG_10_ D_REG_11_ D_REG_12_ D_REG_13_ 
+ D_REG_14_ D_REG_15_ D_REG_16_ D_REG_17_ D_REG_18_ D_REG_19_ D_REG_20_ 
+ D_REG_21_ D_REG_22_ D_REG_23_ D_REG_24_ D_REG_25_ D_REG_26_ D_REG_27_ 
+ D_REG_28_ D_REG_29_ D_REG_30_ D_REG_31_ REG0_REG_0_ REG0_REG_1_ REG0_REG_2_ 
+ REG0_REG_3_ REG0_REG_4_ REG0_REG_5_ REG0_REG_6_ REG0_REG_7_ REG0_REG_8_ 
+ REG0_REG_9_ REG0_REG_10_ REG0_REG_11_ REG0_REG_12_ REG0_REG_13_ REG0_REG_14_ 
+ REG0_REG_15_ REG0_REG_16_ REG0_REG_17_ REG0_REG_18_ REG0_REG_19_ REG0_REG_20_ 
+ REG0_REG_21_ REG0_REG_22_ REG0_REG_23_ REG0_REG_24_ REG0_REG_25_ REG0_REG_26_ 
+ REG0_REG_27_ REG0_REG_28_ REG0_REG_29_ REG0_REG_30_ REG0_REG_31_ REG1_REG_0_ 
+ REG1_REG_1_ REG1_REG_2_ REG1_REG_3_ REG1_REG_4_ REG1_REG_5_ REG1_REG_6_ 
+ REG1_REG_7_ REG1_REG_8_ REG1_REG_9_ REG1_REG_10_ REG1_REG_11_ REG1_REG_12_ 
+ REG1_REG_13_ REG1_REG_14_ REG1_REG_15_ REG1_REG_16_ REG1_REG_17_ REG1_REG_18_ 
+ REG1_REG_19_ REG1_REG_20_ REG1_REG_21_ REG1_REG_22_ REG1_REG_23_ REG1_REG_24_ 
+ REG1_REG_25_ REG1_REG_26_ REG1_REG_27_ REG1_REG_28_ REG1_REG_29_ REG1_REG_30_ 
+ REG1_REG_31_ REG2_REG_0_ REG2_REG_1_ REG2_REG_2_ REG2_REG_3_ REG2_REG_4_ 
+ REG2_REG_5_ REG2_REG_6_ REG2_REG_7_ REG2_REG_8_ REG2_REG_9_ REG2_REG_10_ 
+ REG2_REG_11_ REG2_REG_12_ REG2_REG_13_ REG2_REG_14_ REG2_REG_15_ REG2_REG_16_ 
+ REG2_REG_17_ REG2_REG_18_ REG2_REG_19_ REG2_REG_20_ REG2_REG_21_ REG2_REG_22_ 
+ REG2_REG_23_ REG2_REG_24_ REG2_REG_25_ REG2_REG_26_ REG2_REG_27_ REG2_REG_28_ 
+ REG2_REG_29_ REG2_REG_30_ REG2_REG_31_ ADDR_REG_19__EXTRA ADDR_REG_18__EXTRA 
+ ADDR_REG_17__EXTRA ADDR_REG_16__EXTRA ADDR_REG_15__EXTRA ADDR_REG_14__EXTRA 
+ ADDR_REG_13__EXTRA ADDR_REG_12__EXTRA ADDR_REG_11__EXTRA ADDR_REG_10__EXTRA 
+ ADDR_REG_9__EXTRA ADDR_REG_8__EXTRA ADDR_REG_7__EXTRA ADDR_REG_6__EXTRA 
+ ADDR_REG_5__EXTRA ADDR_REG_4__EXTRA ADDR_REG_3__EXTRA ADDR_REG_2__EXTRA 
+ ADDR_REG_1__EXTRA ADDR_REG_0__EXTRA DATAO_REG_0__EXTRA DATAO_REG_1__EXTRA 
+ DATAO_REG_2__EXTRA DATAO_REG_3__EXTRA DATAO_REG_4__EXTRA DATAO_REG_5__EXTRA 
+ DATAO_REG_6__EXTRA DATAO_REG_7__EXTRA DATAO_REG_8__EXTRA DATAO_REG_9__EXTRA 
+ DATAO_REG_10__EXTRA DATAO_REG_11__EXTRA DATAO_REG_12__EXTRA 
+ DATAO_REG_13__EXTRA DATAO_REG_14__EXTRA DATAO_REG_15__EXTRA 
+ DATAO_REG_16__EXTRA DATAO_REG_17__EXTRA DATAO_REG_18__EXTRA 
+ DATAO_REG_19__EXTRA DATAO_REG_20__EXTRA DATAO_REG_21__EXTRA 
+ DATAO_REG_22__EXTRA DATAO_REG_23__EXTRA DATAO_REG_24__EXTRA 
+ DATAO_REG_25__EXTRA DATAO_REG_26__EXTRA DATAO_REG_27__EXTRA 
+ DATAO_REG_28__EXTRA DATAO_REG_29__EXTRA DATAO_REG_30__EXTRA 
+ DATAO_REG_31__EXTRA B_REG REG3_REG_15_ REG3_REG_26_ REG3_REG_6_ REG3_REG_18_ 
+ REG3_REG_2_ REG3_REG_11_ REG3_REG_22_ REG3_REG_13_ REG3_REG_20_ REG3_REG_0_ 
+ REG3_REG_9_ REG3_REG_4_ REG3_REG_24_ REG3_REG_17_ REG3_REG_5_ REG3_REG_16_ 
+ REG3_REG_25_ REG3_REG_12_ REG3_REG_21_ REG3_REG_1_ REG3_REG_8_ REG3_REG_28_ 
+ REG3_REG_19_ REG3_REG_3_ REG3_REG_10_ REG3_REG_23_ REG3_REG_14_ REG3_REG_27_ 
+ REG3_REG_7_ STATE_REG RD_REG_EXTRA WR_REG_EXTRA DATAI_31_ DATAI_30_ DATAI_29_ 
+ DATAI_28_ DATAI_27_ DATAI_26_ DATAI_25_ DATAI_24_ DATAI_23_ DATAI_22_ 
+ DATAI_21_ DATAI_20_ DATAI_19_ DATAI_18_ DATAI_17_ DATAI_16_ DATAI_15_ 
+ DATAI_14_ DATAI_13_ DATAI_12_ DATAI_11_ DATAI_10_ DATAI_9_ DATAI_8_ DATAI_7_ 
+ DATAI_6_ DATAI_5_ DATAI_4_ DATAI_3_ DATAI_2_ DATAI_1_ DATAI_0_ 
XAND2_4 U3014 U4201 U3431 and 
XAND2_5 U3015 U4011 U3456 and 
XAND2_6 U3016 U3454 U3455 and 
XAND2_7 U3017 U3659 U3654 and 
XAND2_8 U3018 U3462 U3463 and 
XAND2_9 U3019 U5826 U3462 and 
XAND2_10 U3020 U5823 U3463 and 
XAND2_11 U3021 U5823 U5826 and 
XAND2_12 U3022 U5613 U3355 and 
XAND2_13 U3023 U3047 STATE_REG and 
XAND3_14 U3024 U5820 U5805 U5808 and 
XAND2_15 U3025 U3845 U3421 and 
XAND2_16 U3026 U4042 U5799 and 
XAND2_17 U3027 U4010 U5820 and 
XAND2_18 U3028 U3908 U4028 and 
XAND2_19 U3029 U3357 STATE_REG and 
XAND2_20 U3030 U4019 U4044 and 
XAND2_21 U3031 U4044 U4021 and 
XAND2_22 U3032 U4012 U4044 and 
XAND2_23 U3033 U4020 U4044 and 
XAND2_24 U3034 U4042 U3454 and 
XAND2_25 U3035 U4028 U5799 and 
XAND2_26 U3036 U4044 U3026 and 
XAND2_27 U3037 U4028 U3454 and 
XAND2_28 U3038 U5802 U4938 and 
XAND2_29 U3039 U3025 U5802 and 
XAND2_30 U3040 U5799 U4938 and 
XAND2_31 U3041 U3025 U5799 and 
XAND2_32 U3042 U3016 U4938 and 
XAND2_33 U3043 U3025 U3016 and 
XAND2_34 U3044 U3023 U3421 and 
XAND2_35 U3045 U5170 STATE_REG and 
XAND2_36 U3046 U3023 U5172 and 
XAND2_37 U3047 U5748 U3355 and 
XAND2_38 U3048 U3660 U3017 and 
XAND5_39 U3049 U4759 U4758 U4762 U4766 U4765 and 
XAND2_198 U3208 U5612 U3355 and 
XAND2_281 U3291 D_REG_31_ U3968 and 
XAND2_282 U3292 D_REG_30_ U3968 and 
XAND2_283 U3293 D_REG_29_ U3968 and 
XAND2_284 U3294 D_REG_28_ U3968 and 
XAND2_285 U3295 D_REG_27_ U3968 and 
XAND2_286 U3296 D_REG_26_ U3968 and 
XAND2_287 U3297 D_REG_25_ U3968 and 
XAND2_288 U3298 D_REG_24_ U3968 and 
XAND2_289 U3299 D_REG_23_ U3968 and 
XAND2_290 U3300 D_REG_22_ U3968 and 
XAND2_291 U3301 D_REG_21_ U3968 and 
XAND2_292 U3302 D_REG_20_ U3968 and 
XAND2_293 U3303 D_REG_19_ U3968 and 
XAND2_294 U3304 D_REG_18_ U3968 and 
XAND2_295 U3305 D_REG_17_ U3968 and 
XAND2_296 U3306 D_REG_16_ U3968 and 
XAND2_297 U3307 D_REG_15_ U3968 and 
XAND2_298 U3308 D_REG_14_ U3968 and 
XAND2_299 U3309 D_REG_13_ U3968 and 
XAND2_300 U3310 D_REG_12_ U3968 and 
XAND2_301 U3311 D_REG_11_ U3968 and 
XAND2_302 U3312 D_REG_10_ U3968 and 
XAND2_303 U3313 D_REG_9_ U3968 and 
XAND2_304 U3314 D_REG_8_ U3968 and 
XAND2_305 U3315 D_REG_7_ U3968 and 
XAND2_306 U3316 D_REG_6_ U3968 and 
XAND2_307 U3317 D_REG_5_ U3968 and 
XAND2_308 U3318 D_REG_4_ U3968 and 
XAND2_309 U3319 D_REG_3_ U3968 and 
XAND2_310 U3320 D_REG_2_ U3968 and 
XAND2_604 U3614 U4067 U4065 and 
XAND2_605 U3615 U4070 U4068 and 
XAND2_606 U3616 U4073 U4071 and 
XAND2_607 U3617 U4076 U4074 and 
XAND2_608 U3618 U4079 U4077 and 
XAND2_609 U3619 U4082 U4080 and 
XAND2_610 U3620 U4085 U4083 and 
XAND2_611 U3621 U4088 U4086 and 
XAND2_612 U3622 U4091 U4089 and 
XAND2_613 U3623 U4094 U4092 and 
XAND2_614 U3624 U4097 U4095 and 
XAND2_615 U3625 U4100 U4098 and 
XAND2_616 U3626 U4103 U4101 and 
XAND2_617 U3627 U4106 U4104 and 
XAND2_618 U3628 U4109 U4107 and 
XAND2_619 U3629 U4112 U4110 and 
XAND2_620 U3630 U4115 U4113 and 
XAND2_621 U3631 U4118 U4116 and 
XAND2_622 U3632 U4121 U4119 and 
XAND2_623 U3633 U4124 U4122 and 
XAND2_624 U3634 U4127 U4125 and 
XAND2_625 U3635 U4130 U4128 and 
XAND2_626 U3636 U4133 U4131 and 
XAND2_627 U3637 U4136 U4134 and 
XAND2_628 U3638 U4139 U4137 and 
XAND2_629 U3639 U4142 U4140 and 
XAND2_630 U3640 U4145 U4143 and 
XAND2_631 U3641 U4148 U4146 and 
XAND2_632 U3642 U4151 U4149 and 
XAND2_633 U3643 U4154 U4152 and 
XAND2_634 U3644 U4157 U4155 and 
XAND2_635 U3645 U4160 U4158 and 
XAND2_636 U3646 U4203 U4202 and 
XAND2_637 U3647 U4205 U4204 and 
XAND2_638 U3648 U4212 U4210 and 
XAND3_639 U3649 U4213 U4211 U3648 and 
XAND4_640 U3650 U4167 U4166 U4165 U4164 and 
XAND4_641 U3651 U4171 U4170 U4169 U4168 and 
XAND4_642 U3652 U4175 U4174 U4173 U4172 and 
XAND3_643 U3653 U4177 U4176 U4178 and 
XAND4_644 U3654 U3653 U3652 U3651 U3650 and 
XAND4_645 U3655 U4182 U4181 U4180 U4179 and 
XAND4_646 U3656 U4186 U4185 U4184 U4183 and 
XAND4_647 U3657 U4190 U4189 U4188 U4187 and 
XAND3_648 U3658 U4192 U4191 U4193 and 
XAND4_649 U3659 U3658 U3657 U3656 U3655 and 
XAND2_650 U3660 U5834 U4195 and 
XAND2_651 U3661 U5837 U3023 and 
XAND2_652 U3662 U4228 U4227 and 
XAND2_653 U3663 U4230 U4229 and 
XAND3_654 U3664 U4232 U4231 U3663 and 
XAND4_655 U3665 U4235 U4236 U4237 U4234 and 
XAND2_656 U3666 U4247 U4246 and 
XAND2_657 U3667 U4249 U4248 and 
XAND3_658 U3668 U4251 U4250 U3667 and 
XAND4_659 U3669 U4254 U4255 U4256 U4253 and 
XAND2_660 U3670 U4266 U4265 and 
XAND2_661 U3671 U4268 U4267 and 
XAND3_662 U3672 U4270 U4269 U3671 and 
XAND4_663 U3673 U4273 U4274 U4275 U4272 and 
XAND2_664 U3674 U4285 U4284 and 
XAND2_665 U3675 U4287 U4286 and 
XAND3_666 U3676 U4289 U4288 U3675 and 
XAND4_667 U3677 U4292 U4293 U4294 U4291 and 
XAND2_668 U3678 U4304 U4303 and 
XAND2_669 U3679 U4306 U4305 and 
XAND3_670 U3680 U4308 U4307 U3679 and 
XAND4_671 U3681 U4311 U4312 U4313 U4310 and 
XAND2_672 U3682 U4323 U4322 and 
XAND2_673 U3683 U4325 U4324 and 
XAND3_674 U3684 U4327 U4326 U3683 and 
XAND4_675 U3685 U4330 U4331 U4332 U4329 and 
XAND2_676 U3686 U4342 U4341 and 
XAND2_677 U3687 U4344 U4343 and 
XAND3_678 U3688 U4346 U4345 U3687 and 
XAND4_679 U3689 U4349 U4350 U4351 U4348 and 
XAND2_680 U3690 U4361 U4360 and 
XAND2_681 U3691 U4363 U4362 and 
XAND3_682 U3692 U4365 U4364 U3691 and 
XAND4_683 U3693 U4368 U4369 U4370 U4367 and 
XAND2_684 U3694 U4380 U4379 and 
XAND2_685 U3695 U4382 U4381 and 
XAND3_686 U3696 U4384 U4383 U3695 and 
XAND4_687 U3697 U4387 U4388 U4389 U4386 and 
XAND2_688 U3698 U4399 U4398 and 
XAND2_689 U3699 U4401 U4400 and 
XAND3_690 U3700 U4403 U4402 U3699 and 
XAND4_691 U3701 U4406 U4407 U4408 U4405 and 
XAND2_692 U3702 U4418 U4417 and 
XAND2_693 U3703 U4420 U4419 and 
XAND3_694 U3704 U4422 U4421 U3703 and 
XAND4_695 U3705 U4425 U4426 U4427 U4424 and 
XAND2_696 U3706 U4437 U4436 and 
XAND2_697 U3707 U4439 U4438 and 
XAND3_698 U3708 U4441 U4440 U3707 and 
XAND4_699 U3709 U4444 U4445 U4446 U4443 and 
XAND2_700 U3710 U4456 U4455 and 
XAND2_701 U3711 U4458 U4457 and 
XAND3_702 U3712 U4460 U4459 U3711 and 
XAND4_703 U3713 U4463 U4464 U4465 U4462 and 
XAND2_704 U3714 U4475 U4474 and 
XAND2_705 U3715 U4477 U4476 and 
XAND3_706 U3716 U4479 U4478 U3715 and 
XAND4_707 U3717 U4482 U4483 U4484 U4481 and 
XAND2_708 U3718 U4494 U4493 and 
XAND2_709 U3719 U4496 U4495 and 
XAND3_710 U3720 U4498 U4497 U3719 and 
XAND4_711 U3721 U4501 U4502 U4503 U4500 and 
XAND2_712 U3722 U4513 U4512 and 
XAND2_713 U3723 U4515 U4514 and 
XAND3_714 U3724 U4517 U4516 U3723 and 
XAND4_715 U3725 U4520 U4521 U4522 U4519 and 
XAND2_716 U3726 U4532 U4531 and 
XAND2_717 U3727 U4534 U4533 and 
XAND3_718 U3728 U4536 U4535 U3727 and 
XAND4_719 U3729 U4539 U4540 U4541 U4538 and 
XAND2_720 U3730 U4551 U4550 and 
XAND2_721 U3731 U4553 U4552 and 
XAND3_722 U3732 U4555 U4554 U3731 and 
XAND4_723 U3733 U4558 U4559 U4560 U4557 and 
XAND2_724 U3734 U4570 U4569 and 
XAND2_725 U3735 U4572 U4571 and 
XAND3_726 U3736 U4574 U4573 U3735 and 
XAND4_727 U3737 U4577 U4578 U4579 U4576 and 
XAND2_728 U3738 U4589 U4588 and 
XAND2_729 U3739 U4591 U4590 and 
XAND3_730 U3740 U4593 U4592 U3739 and 
XAND4_731 U3741 U4596 U4597 U4598 U4595 and 
XAND2_732 U3742 U4608 U4607 and 
XAND2_733 U3743 U4610 U4609 and 
XAND3_734 U3744 U4612 U4611 U3743 and 
XAND4_735 U3745 U4615 U4616 U4617 U4614 and 
XAND2_736 U3746 U4627 U4626 and 
XAND2_737 U3747 U4629 U4628 and 
XAND3_738 U3748 U4631 U4630 U3747 and 
XAND4_739 U3749 U4634 U4635 U4636 U4633 and 
XAND2_740 U3750 U4646 U4645 and 
XAND2_741 U3751 U4648 U4647 and 
XAND3_742 U3752 U4650 U4649 U3751 and 
XAND4_743 U3753 U4653 U4654 U4655 U4652 and 
XAND2_744 U3754 U4665 U4664 and 
XAND2_745 U3755 U4667 U4666 and 
XAND3_746 U3756 U4669 U4668 U3755 and 
XAND4_747 U3757 U4672 U4673 U4674 U4671 and 
XAND2_748 U3758 U4684 U4683 and 
XAND2_749 U3759 U4686 U4685 and 
XAND3_750 U3760 U4688 U4687 U3759 and 
XAND4_751 U3761 U4691 U4692 U4693 U4690 and 
XAND2_752 U3762 U4703 U4702 and 
XAND2_753 U3763 U4705 U4704 and 
XAND3_754 U3764 U4707 U4706 U3763 and 
XAND4_755 U3765 U4710 U4711 U4712 U4709 and 
XAND2_756 U3766 U4722 U4721 and 
XAND2_757 U3767 U4724 U4723 and 
XAND3_758 U3768 U4726 U4725 U3767 and 
XAND4_759 U3769 U4729 U4730 U4731 U4728 and 
XAND2_760 U3770 U4741 U4740 and 
XAND2_761 U3771 U4743 U4742 and 
XAND3_762 U3772 U4745 U4744 U3771 and 
XAND4_763 U3773 U4748 U4749 U4750 U4747 and 
XAND2_764 U3774 U4757 U4042 and 
XAND4_765 U3775 U4764 U4763 U4761 U4760 and 
XAND3_766 U3776 U4769 U4770 U4768 and 
XAND2_767 U3777 U4042 U4757 and 
XAND2_768 U3778 U3023 U3465 and 
XAND3_769 U3779 U5837 U4025 U3466 and 
XAND3_770 U3780 U4786 U4785 U4787 and 
XAND3_771 U3781 U4789 U4788 U3972 and 
XAND3_772 U3782 U4791 U4790 U4792 and 
XAND3_773 U3783 U4794 U4793 U3973 and 
XAND3_774 U3784 U4796 U4795 U4797 and 
XAND3_775 U3785 U4799 U4798 U3974 and 
XAND3_776 U3786 U4801 U4800 U4802 and 
XAND3_777 U3787 U4804 U4803 U3975 and 
XAND3_778 U3788 U4806 U4805 U4807 and 
XAND3_779 U3789 U4809 U4808 U3976 and 
XAND3_780 U3790 U4811 U4810 U4812 and 
XAND2_781 U3791 U4814 U4813 and 
XAND3_782 U3792 U4816 U4815 U4817 and 
XAND2_783 U3793 U4819 U4818 and 
XAND3_784 U3794 U4821 U4820 U4822 and 
XAND2_785 U3795 U4824 U4823 and 
XAND3_786 U3796 U4826 U4825 U4827 and 
XAND2_787 U3797 U4829 U4828 and 
XAND3_788 U3798 U4831 U4830 U4832 and 
XAND2_789 U3799 U4834 U4833 and 
XAND3_790 U3800 U4836 U4835 U4837 and 
XAND2_791 U3801 U4839 U4838 and 
XAND3_792 U3802 U4841 U4840 U4842 and 
XAND2_793 U3803 U4844 U4843 and 
XAND3_794 U3804 U4846 U4845 U4847 and 
XAND2_795 U3805 U4849 U4848 and 
XAND2_796 U3806 U4851 U4850 and 
XAND2_797 U3807 U4854 U4853 and 
XAND3_798 U3808 U4856 U4855 U4857 and 
XAND2_799 U3809 U4859 U4858 and 
XAND2_800 U3810 U4861 U4860 and 
XAND2_801 U3811 U4864 U4863 and 
XAND2_802 U3812 U4866 U4865 and 
XAND2_803 U3813 U4869 U4868 and 
XAND2_804 U3814 U4871 U4870 and 
XAND2_805 U3815 U4874 U4873 and 
XAND2_806 U3816 U4876 U4875 and 
XAND2_807 U3817 U4879 U4878 and 
XAND2_808 U3818 U4881 U4880 and 
XAND2_809 U3819 U4884 U4883 and 
XAND2_810 U3820 U4886 U4885 and 
XAND2_811 U3821 U4889 U4888 and 
XAND2_812 U3822 U4891 U4890 and 
XAND2_813 U3823 U4894 U4893 and 
XAND2_814 U3824 U4896 U4895 and 
XAND2_815 U3825 U4899 U4898 and 
XAND2_816 U3826 U4901 U4900 and 
XAND2_817 U3827 U4904 U4903 and 
XAND2_818 U3828 U4906 U4905 and 
XAND2_819 U3829 U4909 U4908 and 
XAND2_820 U3830 U4911 U4910 and 
XAND2_821 U3831 U4914 U4913 and 
XAND2_822 U3832 U4916 U4915 and 
XAND2_823 U3833 U4919 U4918 and 
XAND2_824 U3834 U4921 U4920 and 
XAND2_825 U3835 U4924 U4923 and 
XAND2_826 U3836 U4926 U4925 and 
XAND2_827 U3837 U4929 U4928 and 
XAND3_828 U3838 U5738 U5737 U5739 and 
XAND3_829 U3839 U3419 U3370 U3367 and 
XAND3_830 U3840 U3368 U3362 U3366 and 
XAND2_831 U3841 U3363 U3364 and 
XAND2_832 U3842 U3841 U3420 and 
XAND2_833 U3843 U3353 U3418 and 
XAND2_834 U3844 U3040 U3461 and 
XAND2_835 U3845 U3431 STATE_REG and 
XAND4_836 U3846 U4940 U4939 U4943 U4941 and 
XAND2_837 U3847 U4947 U4944 and 
XAND3_838 U3848 U4945 U3847 U4946 and 
XAND2_839 U3849 U3040 U3444 and 
XAND4_840 U3850 U4949 U4948 U4951 U4950 and 
XAND2_841 U3851 U4955 U4952 and 
XAND3_842 U3852 U4953 U3851 U4954 and 
XAND2_843 U3853 U4961 U4962 and 
XAND2_844 U3854 U4965 U4963 and 
XAND2_845 U3855 U4971 U4972 and 
XAND2_846 U3856 U4975 U4973 and 
XAND2_847 U3857 U4981 U4982 and 
XAND2_848 U3858 U4985 U4983 and 
XAND2_849 U3859 U4991 U4992 and 
XAND2_850 U3860 U4995 U4993 and 
XAND2_851 U3861 U5001 U5002 and 
XAND2_852 U3862 U5005 U5003 and 
XAND2_853 U3863 U5011 U5012 and 
XAND2_854 U3864 U5015 U5013 and 
XAND2_855 U3865 U5021 U5022 and 
XAND2_856 U3866 U5025 U5023 and 
XAND2_857 U3867 U5031 U5032 and 
XAND2_858 U3868 U5035 U5033 and 
XAND2_859 U3869 U5041 U5042 and 
XAND2_860 U3870 U5045 U5043 and 
XAND2_861 U3871 U5051 U5052 and 
XAND2_862 U3872 U5055 U5053 and 
XAND3_863 U3873 U5061 U5062 U5060 and 
XAND3_864 U3874 U5064 U5063 U5065 and 
XAND3_865 U3875 U5071 U5072 U5070 and 
XAND3_866 U3876 U5074 U5073 U5075 and 
XAND3_867 U3877 U5081 U5082 U5080 and 
XAND3_868 U3878 U5084 U5083 U5085 and 
XAND2_869 U3879 U5090 U4053 and 
XAND3_870 U3880 U5092 U5091 U3879 and 
XAND3_871 U3881 U5094 U5093 U5095 and 
XAND3_872 U3882 U5101 U5102 U5100 and 
XAND3_873 U3883 U5104 U5103 U5105 and 
XAND2_874 U3884 U5110 U4053 and 
XAND3_875 U3885 U5112 U5111 U3884 and 
XAND3_876 U3886 U5114 U5113 U5115 and 
XAND3_877 U3887 U5121 U5122 U5120 and 
XAND3_878 U3888 U5124 U5123 U5125 and 
XAND3_879 U3889 U5131 U5132 U5130 and 
XAND3_880 U3890 U5134 U5133 U5135 and 
XAND4_881 U3891 U6210 U6207 U6204 U6201 and 
XAND4_882 U3892 U6222 U6219 U6216 U6213 and 
XAND4_883 U3893 U6234 U6231 U6228 U6225 and 
XAND4_884 U3894 U6246 U6243 U6240 U6237 and 
XAND4_885 U3895 U6174 U6171 U6168 U6165 and 
XAND3_886 U3896 U6159 U6156 U6162 and 
XAND4_887 U3897 U6192 U6189 U6186 U6183 and 
XAND2_888 U3898 U6180 U6177 and 
XAND2_889 U3899 U6198 U6195 and 
XAND5_890 U3900 U3895 U3896 U6153 U3897 U3898 and 
XAND5_891 U3901 U3894 U3893 U3892 U3891 U3899 and 
XAND4_892 U3902 U6255 U6254 U5141 U5140 and 
XAND2_893 U3903 U3356 STATE_REG and 
XAND2_894 U3904 U5148 U5146 and 
XAND2_895 U3905 U3465 U3466 and 
XAND3_896 U3906 U3371 U3420 U4008 and 
XAND3_897 U3907 U3356 U4025 U5748 and 
XAND2_898 U3908 U3023 U5157 and 
XAND2_899 U3909 U3910 U5200 and 
XAND2_900 U3910 U5204 U5203 and 
XAND2_901 U3911 U4049 U3075 and 
XAND2_902 U3912 U5245 U5244 and 
XAND2_903 U3913 U5248 U5247 and 
XAND2_904 U3914 U5266 U5265 and 
XAND2_905 U3915 U5293 U5292 and 
XAND2_906 U3916 U3917 U5334 and 
XAND2_907 U3917 U5338 U5337 and 
XAND2_908 U3918 U3919 U5370 and 
XAND2_909 U3919 U5374 U5373 and 
XAND3_910 U3920 U3431 U5423 U5425 and 
XAND3_911 U3921 U3431 U5426 U5428 and 
XAND3_912 U3922 U3431 U5429 U5431 and 
XAND3_913 U3923 U3431 U5432 U5434 and 
XAND3_914 U3924 U3431 U5435 U5437 and 
XAND3_915 U3925 U3431 U5438 U5440 and 
XAND2_916 U3926 U5442 U5443 and 
XAND2_917 U3927 U5445 U5446 and 
XAND3_918 U3928 U3431 U5447 U5449 and 
XAND2_919 U3929 U5452 U3930 and 
XAND2_920 U3930 U3431 U5451 and 
XAND2_921 U3931 U5455 U3932 and 
XAND2_922 U3932 U3431 U5454 and 
XAND2_923 U3933 U5458 U3934 and 
XAND2_924 U3934 U3431 U5457 and 
XAND2_925 U3935 U5461 U3936 and 
XAND2_926 U3936 U3431 U5460 and 
XAND2_927 U3937 U5464 U3938 and 
XAND2_928 U3938 U3431 U5463 and 
XAND2_929 U3939 U5467 U3940 and 
XAND2_930 U3940 U3431 U5466 and 
XAND2_931 U3941 U5470 U3942 and 
XAND2_932 U3942 U3431 U5469 and 
XAND2_933 U3943 U5473 U3944 and 
XAND2_934 U3944 U3431 U5472 and 
XAND2_935 U3945 U5476 U3946 and 
XAND2_936 U3946 U3431 U5475 and 
XAND2_937 U3947 U5479 U3948 and 
XAND2_938 U3948 U3431 U5478 and 
XAND3_939 U3949 U3431 U5480 U5482 and 
XAND3_940 U3950 U3431 U5483 U5485 and 
XAND3_941 U3951 U3431 U5486 U5488 and 
XAND3_942 U3952 U3431 U5489 U5491 and 
XAND3_943 U3953 U3431 U5492 U5494 and 
XAND3_944 U3954 U3431 U5495 U5497 and 
XAND3_945 U3955 U3431 U5498 U5500 and 
XAND3_946 U3956 U3431 U5501 U5503 and 
XAND3_947 U3957 U3431 U5504 U5506 and 
XAND3_948 U3958 U3431 U5507 U5509 and 
XAND3_949 U3959 U3431 U5510 U5512 and 
XAND3_950 U3960 U3431 U5513 U5515 and 
XAND3_951 U3961 U3431 U5516 U5518 and 
XAND2_952 U3962 U5808 U5805 and 
XAND2_953 U3963 U3365 U3430 and 
XAND2_954 U3964 U5616 U4026 and 
XAND2_955 U3965 U5676 U5677 and 
XAND2_956 U3966 U5736 U5734 and 
XAND2_962 U3972 U6024 U6023 and 
XAND2_963 U3973 U6026 U6025 and 
XAND2_964 U3974 U6028 U6027 and 
XAND2_965 U3975 U6030 U6029 and 
XAND2_966 U3976 U6032 U6031 and 
XAND2_967 U3977 U6034 U6033 and 
XAND2_968 U3978 U6036 U6035 and 
XAND2_969 U3979 U6038 U6037 and 
XAND2_970 U3980 U6040 U6039 and 
XAND2_971 U3981 U6042 U6041 and 
XAND2_972 U3982 U6044 U6043 and 
XAND2_973 U3983 U6046 U6045 and 
XAND2_974 U3984 U6048 U6047 and 
XAND2_975 U3985 U6050 U6049 and 
XAND2_976 U3986 U6052 U6051 and 
XAND2_977 U3987 U6054 U6053 and 
XAND2_978 U3988 U6056 U6055 and 
XAND2_979 U3989 U6058 U6057 and 
XAND2_980 U3990 U6060 U6059 and 
XAND2_981 U3991 U6062 U6061 and 
XAND2_982 U3992 U6064 U6063 and 
XAND2_983 U3993 U6066 U6065 and 
XAND2_984 U3994 U6068 U6067 and 
XAND2_985 U3995 U6070 U6069 and 
XAND2_986 U3996 U6072 U6071 and 
XAND2_987 U3997 U6074 U6073 and 
XAND2_988 U3998 U6076 U6075 and 
XAND2_989 U3999 U6078 U6077 and 
XAND2_990 U4000 U6080 U6079 and 
XAND2_991 U4001 U6082 U6081 and 
XAND2_993 U4003 U6084 U6083 and 
XAND2_994 U4004 U6086 U6085 and 
XAND2_996 U4006 U6251 U6250 and 
XAND2_3337 SUB_84_U5 SUB_84_U55 SUB_84_U54 and 
XAND2_3338 SUB_84_U6 SUB_84_U138 SUB_84_U103 and 
XAND2_3339 SUB_84_U7 SUB_84_U137 SUB_84_U46 and 
XAND2_3340 SUB_84_U8 SUB_84_U136 SUB_84_U32 and 
XAND2_3341 SUB_84_U9 SUB_84_U134 SUB_84_U106 and 
XAND2_3342 SUB_84_U10 SUB_84_U133 SUB_84_U43 and 
XAND2_3343 SUB_84_U11 SUB_84_U132 SUB_84_U38 and 
XAND2_3344 SUB_84_U12 SUB_84_U130 SUB_84_U122 and 
XAND2_3345 SUB_84_U13 SUB_84_U129 SUB_84_U39 and 
XAND2_3346 SUB_84_U14 SUB_84_U128 SUB_84_U40 and 
XAND2_3347 SUB_84_U15 SUB_84_U126 SUB_84_U80 and 
XAND2_3348 SUB_84_U16 SUB_84_U120 SUB_84_U36 and 
XAND2_3349 SUB_84_U17 SUB_84_U118 SUB_84_U75 and 
XAND2_3350 SUB_84_U18 SUB_84_U115 SUB_84_U109 and 
XAND2_3351 SUB_84_U19 SUB_84_U113 SUB_84_U33 and 
XAND2_3352 SUB_84_U20 SUB_84_U112 SUB_84_U29 and 
XAND2_3353 SUB_84_U21 SUB_84_U102 SUB_84_U30 and 
XAND2_3354 SUB_84_U22 SUB_84_U101 SUB_84_U26 and 
XAND2_3355 SUB_84_U23 SUB_84_U99 SUB_84_U93 and 
XAND2_3356 SUB_84_U24 SUB_84_U98 SUB_84_U27 and 
XAND2_3357 SUB_84_U25 SUB_84_U97 SUB_84_U45 and 
XAND2_3400 SUB_84_U68 SUB_84_U141 SUB_84_U140 and 
XAND2_3402 SUB_84_U70 SUB_84_U143 SUB_84_U142 and 
XAND2_3405 SUB_84_U73 SUB_84_U147 SUB_84_U146 and 
XAND2_3408 SUB_84_U76 SUB_84_U149 SUB_84_U148 and 
XAND2_3410 SUB_84_U78 SUB_84_U151 SUB_84_U150 and 
XAND2_3413 SUB_84_U81 SUB_84_U153 SUB_84_U152 and 
XAND2_3415 SUB_84_U83 SUB_84_U155 SUB_84_U154 and 
XAND2_3419 SUB_84_U87 SUB_84_U159 SUB_84_U158 and 
XAND2_3421 SUB_84_U89 SUB_84_U161 SUB_84_U160 and 
XAND2_3495 ADD_95_U5 ADD_95_U76 ADD_95_U107 and 
XAND2_3561 ADD_95_U71 REG3_REG_8_ REG3_REG_9_ and 
XAND2_3562 ADD_95_U72 REG3_REG_11_ REG3_REG_10_ and 
XAND2_3563 ADD_95_U73 REG3_REG_13_ REG3_REG_12_ and 
XAND2_3564 ADD_95_U74 REG3_REG_15_ REG3_REG_14_ and 
XAND2_3565 ADD_95_U75 REG3_REG_17_ REG3_REG_16_ and 
XAND2_3566 ADD_95_U76 REG3_REG_28_ REG3_REG_27_ and 
XAND3_3711 R395_U67 R395_U103 R395_U104 R395_U102 and 
XAND3_3712 R395_U68 R395_U109 R395_U108 R395_U184 and 
XAND2_3713 R395_U69 U3142 R395_U8 and 
XAND3_3714 R395_U70 R395_U110 R395_U107 R395_U106 and 
XAND3_3715 R395_U71 R395_U115 R395_U111 R395_U116 and 
XAND2_3716 R395_U72 U3107 R395_U14 and 
XAND4_3717 R395_U73 R395_U117 R395_U114 R395_U113 R395_U74 and 
XAND3_3718 R395_U74 R395_U122 R395_U118 R395_U123 and 
XAND2_3719 R395_U75 U3136 R395_U20 and 
XAND4_3720 R395_U76 R395_U124 R395_U121 R395_U120 R395_U77 and 
XAND3_3721 R395_U77 R395_U129 R395_U125 R395_U130 and 
XAND2_3722 R395_U78 U3101 R395_U26 and 
XAND3_3723 R395_U79 R395_U80 R395_U128 R395_U127 and 
XAND2_3724 R395_U80 R395_U132 R395_U131 and 
XAND2_3725 R395_U81 R395_U134 R395_U135 and 
XAND2_3726 R395_U82 R395_U137 R395_U138 and 
XAND2_3727 R395_U83 R395_U140 R395_U141 and 
XAND2_3728 R395_U84 R395_U143 R395_U144 and 
XAND2_3729 R395_U85 R395_U146 R395_U147 and 
XAND2_3730 R395_U86 R395_U149 R395_U150 and 
XAND2_3731 R395_U87 R395_U152 R395_U153 and 
XAND2_3732 R395_U88 R395_U155 R395_U156 and 
XAND2_3733 R395_U89 R395_U158 R395_U159 and 
XAND2_3734 R395_U90 R395_U161 R395_U162 and 
XAND2_3735 R395_U91 R395_U164 R395_U165 and 
XAND2_3736 R395_U92 R395_U167 R395_U168 and 
XAND2_3737 R395_U93 R395_U170 R395_U171 and 
XAND2_3738 R395_U94 R395_U173 R395_U174 and 
XAND2_3739 R395_U95 R395_U176 R395_U177 and 
XAND2_3740 R395_U96 R395_U179 R395_U180 and 
XAND3_3741 R395_U97 R395_U186 R395_U185 R395_U182 and 
XAND2_3743 R395_U99 R395_U188 R395_U187 and 
XAND2_3833 R1105_U4 R1105_U179 R1105_U175 and 
XAND3_3893 R1105_U64 R1105_U243 R1105_U242 R1105_U174 and 
XAND2_3894 R1105_U65 R1105_U178 R1105_U246 and 
XAND2_3895 R1105_U66 R1105_U182 R1105_U181 and 
XAND2_3897 R1105_U68 R1105_U189 R1105_U188 and 
XAND2_3899 R1105_U70 R1105_U196 R1105_U195 and 
XAND2_3901 R1105_U72 R1105_U203 R1105_U202 and 
XAND2_3903 R1105_U74 R1105_U210 R1105_U209 and 
XAND2_3905 R1105_U76 R1105_U217 R1105_U216 and 
XAND2_3907 R1105_U78 R1105_U224 R1105_U223 and 
XAND2_3909 R1105_U80 R1105_U231 R1105_U230 and 
XAND2_3912 R1105_U83 R1105_U241 R1105_U240 and 
XAND2_3915 R1105_U86 R1105_U248 R1105_U247 and 
XAND2_3916 R1105_U87 R1105_U255 R1105_U254 and 
XAND2_3918 R1105_U89 R1105_U262 R1105_U261 and 
XAND2_3920 R1105_U91 R1105_U269 R1105_U268 and 
XAND2_3922 R1105_U93 R1105_U276 R1105_U275 and 
XAND2_3924 R1105_U95 R1105_U283 R1105_U282 and 
XAND2_3926 R1105_U97 R1105_U290 R1105_U289 and 
XAND2_3928 R1105_U99 R1105_U297 R1105_U296 and 
XAND2_3930 R1105_U101 R1105_U304 R1105_U303 and 
XAND2_4143 R1309_U8 R1309_U10 R1309_U9 and 
XAND2_4146 R1282_U6 R1282_U130 R1282_U12 and 
XAND2_4147 R1282_U7 R1282_U106 R1282_U96 and 
XAND2_4148 R1282_U8 R1282_U105 R1282_U13 and 
XAND2_4149 R1282_U9 R1282_U104 R1282_U98 and 
XAND2_4150 R1282_U10 R1282_U103 R1282_U14 and 
XAND2_4151 R1282_U11 R1282_U102 R1282_U35 and 
XAND2_4173 R1282_U33 R1282_U132 R1282_U131 and 
XAND2_4176 R1282_U36 R1282_U134 R1282_U133 and 
XAND2_4179 R1282_U39 R1282_U136 R1282_U135 and 
XAND2_4182 R1282_U42 R1282_U138 R1282_U137 and 
XAND2_4184 R1282_U44 R1282_U140 R1282_U139 and 
XAND2_4187 R1282_U47 R1282_U142 R1282_U141 and 
XAND2_4189 R1282_U49 R1282_U144 R1282_U143 and 
XAND2_4192 R1282_U52 R1282_U146 R1282_U145 and 
XAND2_4194 R1282_U54 R1282_U148 R1282_U147 and 
XAND2_4197 R1282_U57 R1282_U150 R1282_U149 and 
XAND2_4199 R1282_U59 R1282_U152 R1282_U151 and 
XAND2_4202 R1282_U62 R1282_U154 R1282_U153 and 
XAND2_4204 R1282_U64 R1282_U156 R1282_U155 and 
XAND2_4207 R1282_U67 R1282_U158 R1282_U157 and 
XAND2_4211 R1282_U71 R1282_U162 R1282_U161 and 
XAND2_4214 R1282_U74 R1282_U164 R1282_U163 and 
XAND2_4216 R1282_U76 R1282_U166 R1282_U165 and 
XAND2_4219 R1282_U79 R1282_U168 R1282_U167 and 
XAND2_4221 R1282_U81 R1282_U170 R1282_U169 and 
XAND2_4224 R1282_U84 R1282_U172 R1282_U171 and 
XAND2_4226 R1282_U86 R1282_U174 R1282_U173 and 
XAND2_4229 R1282_U89 R1282_U176 R1282_U175 and 
XAND2_4231 R1282_U91 R1282_U178 R1282_U177 and 
XAND2_4234 R1282_U94 R1282_U180 R1282_U179 and 
XAND2_4321 R1240_U4 R1240_U196 R1240_U195 and 
XAND2_4322 R1240_U5 R1240_U197 R1240_U198 and 
XAND2_4323 R1240_U6 R1240_U210 R1240_U209 and 
XAND2_4324 R1240_U7 R1240_U250 R1240_U249 and 
XAND2_4325 R1240_U8 R1240_U258 R1240_U257 and 
XAND2_4326 R1240_U9 R1240_U274 R1240_U273 and 
XAND2_4327 R1240_U10 R1240_U282 R1240_U281 and 
XAND2_4328 R1240_U11 R1240_U10 R1240_U283 and 
XAND2_4329 R1240_U12 R1240_U7 R1240_U217 and 
XAND2_4330 R1240_U13 R1240_U8 R1240_U262 and 
XAND2_4331 R1240_U14 R1240_U11 R1240_U292 and 
XAND2_4332 R1240_U15 R1240_U13 R1240_U267 and 
XAND2_4333 R1240_U16 R1240_U9 R1240_U14 and 
XAND2_4334 R1240_U17 R1240_U299 R1240_U305 and 
XAND2_4335 R1240_U18 R1240_U359 R1240_U356 and 
XAND2_4336 R1240_U19 R1240_U352 R1240_U349 and 
XAND2_4337 R1240_U20 R1240_U343 R1240_U340 and 
XAND2_4338 R1240_U21 R1240_U334 R1240_U331 and 
XAND2_4339 R1240_U22 R1240_U328 R1240_U326 and 
XAND2_4340 R1240_U23 R1240_U321 R1240_U318 and 
XAND2_4341 R1240_U24 R1240_U248 R1240_U245 and 
XAND2_4342 R1240_U25 R1240_U240 R1240_U237 and 
XAND2_4343 R1240_U26 R1240_U226 R1240_U223 and 
XAND2_4445 R1240_U128 R1240_U129 R1240_U197 and 
XAND2_4446 R1240_U129 U3065 U3470 and 
XAND2_4447 R1240_U130 U3472 U3061 and 
XAND2_4448 R1240_U131 U3464 U3074 and 
XAND3_4449 R1240_U132 R1240_U204 R1240_U206 R1240_U203 and 
XAND3_4450 R1240_U133 R1240_U373 R1240_U207 R1240_U374 and 
XAND3_4451 R1240_U134 R1240_U409 R1240_U408 R1240_U43 and 
XAND2_4452 R1240_U135 R1240_U225 R1240_U6 and 
XAND2_4453 R1240_U136 R1240_U233 R1240_U231 and 
XAND3_4454 R1240_U137 R1240_U416 R1240_U415 R1240_U34 and 
XAND2_4455 R1240_U138 R1240_U239 R1240_U4 and 
XAND2_4456 R1240_U139 R1240_U247 R1240_U198 and 
XAND2_4457 R1240_U140 R1240_U252 R1240_U188 and 
XAND2_4458 R1240_U141 R1240_U6 R1240_U12 and 