$ Spice netlist generated by v2lvs
$ v2013.3_28.19    Tue Sep 3 16:44:15 PDT 2013

.SUBCKT b15_ras U3445 U3446 U3447 U3448 U3213 U3212 U3211 U3210 U3209 U3208 
+ U3207 U3206 U3205 U3204 U3203 U3202 U3201 U3200 U3199 U3198 U3197 U3196 U3195 
+ U3194 U3193 U3192 U3191 U3190 U3189 U3188 U3187 U3186 U3185 U3184 U3183 U3182 
+ U3181 U3451 U3452 U3180 U3179 U3178 U3177 U3176 U3175 U3174 U3173 U3172 U3171 
+ U3170 U3169 U3168 U3167 U3166 U3165 U3164 U3163 U3162 U3161 U3160 U3159 U3158 
+ U3157 U3156 U3155 U3154 U3153 U3152 U3151 U3453 U3150 U3149 U3148 U3147 U3146 
+ U3145 U3144 U3143 U3142 U3141 U3140 U3139 U3138 U3137 U3136 U3135 U3134 U3133 
+ U3132 U3131 U3130 U3129 U3128 U3127 U3126 U3125 U3124 U3123 U3122 U3121 U3120 
+ U3119 U3118 U3117 U3116 U3115 U3114 U3113 U3112 U3111 U3110 U3109 U3108 U3107 
+ U3106 U3105 U3104 U3103 U3102 U3101 U3100 U3099 U3098 U3097 U3096 U3095 U3094 
+ U3093 U3092 U3091 U3090 U3089 U3088 U3087 U3086 U3085 U3084 U3083 U3082 U3081 
+ U3080 U3079 U3078 U3077 U3076 U3075 U3074 U3073 U3072 U3071 U3070 U3069 U3068 
+ U3067 U3066 U3065 U3064 U3063 U3062 U3061 U3060 U3059 U3058 U3057 U3056 U3055 
+ U3054 U3053 U3052 U3051 U3050 U3049 U3048 U3047 U3046 U3045 U3044 U3043 U3042 
+ U3041 U3040 U3039 U3038 U3037 U3036 U3035 U3034 U3033 U3032 U3031 U3030 U3029 
+ U3028 U3027 U3026 U3025 U3024 U3023 U3022 U3021 U3020 U3455 U3456 U3459 U3460 
+ U3461 U3019 U3462 U3463 U3464 U3465 U3018 U3017 U3016 U3015 U3014 U3013 U3012 
+ U3011 U3010 U3009 U3008 U3007 U3006 U3005 U3004 U3003 U3002 U3001 U3000 U2999 
+ U2998 U2997 U2996 U2995 U2994 U2993 U2992 U2991 U2990 U2989 U2988 U2987 U2986 
+ U2985 U2984 U2983 U2982 U2981 U2980 U2979 U2978 U2977 U2976 U2975 U2974 U2973 
+ U2972 U2971 U2970 U2969 U2968 U2967 U2966 U2965 U2964 U2963 U2962 U2961 U2960 
+ U2959 U2958 U2957 U2956 U2955 U2954 U2953 U2952 U2951 U2950 U2949 U2948 U2947 
+ U2946 U2945 U2944 U2943 U2942 U2941 U2940 U2939 U2938 U2937 U2936 U2935 U2934 
+ U2933 U2932 U2931 U2930 U2929 U2928 U2927 U2926 U2925 U2924 U2923 U2922 U2921 
+ U2920 U2919 U2918 U2917 U2916 U2915 U2914 U2913 U2912 U2911 U2910 U2909 U2908 
+ U2907 U2906 U2905 U2904 U2903 U2902 U2901 U2900 U2899 U2898 U2897 U2896 U2895 
+ U2894 U2893 U2892 U2891 U2890 U2889 U2888 U2887 U2886 U2885 U2884 U2883 U2882 
+ U2881 U2880 U2879 U2878 U2877 U2876 U2875 U2874 U2873 U2872 U2871 U2870 U2869 
+ U2868 U2867 U2866 U2865 U2864 U2863 U2862 U2861 U2860 U2859 U2858 U2857 U2856 
+ U2855 U2854 U2853 U2852 U2851 U2850 U2849 U2848 U2847 U2846 U2845 U2844 U2843 
+ U2842 U2841 U2840 U2839 U2838 U2837 U2836 U2835 U2834 U2833 U2832 U2831 U2830 
+ U2829 U2828 U2827 U2826 U2825 U2824 U2823 U2822 U2821 U2820 U2819 U2818 U2817 
+ U2816 U2815 U2814 U2813 U2812 U2811 U2810 U2809 U2808 U2807 U2806 U2805 U2804 
+ U2803 U2802 U2801 U2800 U2799 U2798 U2797 U2796 U2795 U3468 U2794 U3469 U3470 
+ U2793 U3471 U2792 U3472 U2791 U3473 U2790 U2789 U3474 U2788 BE_N_REG_3_ 
+ BE_N_REG_2_ BE_N_REG_1_ BE_N_REG_0_ ADDRESS_REG_29_ ADDRESS_REG_28_ 
+ ADDRESS_REG_27_ ADDRESS_REG_26_ ADDRESS_REG_25_ ADDRESS_REG_24_ 
+ ADDRESS_REG_23_ ADDRESS_REG_22_ ADDRESS_REG_21_ ADDRESS_REG_20_ 
+ ADDRESS_REG_19_ ADDRESS_REG_18_ ADDRESS_REG_17_ ADDRESS_REG_16_ 
+ ADDRESS_REG_15_ ADDRESS_REG_14_ ADDRESS_REG_13_ ADDRESS_REG_12_ 
+ ADDRESS_REG_11_ ADDRESS_REG_10_ ADDRESS_REG_9_ ADDRESS_REG_8_ ADDRESS_REG_7_ 
+ ADDRESS_REG_6_ ADDRESS_REG_5_ ADDRESS_REG_4_ ADDRESS_REG_3_ ADDRESS_REG_2_ 
+ ADDRESS_REG_1_ ADDRESS_REG_0_ W_R_N_REG D_C_N_REG M_IO_N_REG ADS_N_REG 
+ DATAO_REG_31_ DATAO_REG_30_ DATAO_REG_29_ DATAO_REG_28_ DATAO_REG_27_ 
+ DATAO_REG_26_ DATAO_REG_25_ DATAO_REG_24_ DATAO_REG_23_ DATAO_REG_22_ 
+ DATAO_REG_21_ DATAO_REG_20_ DATAO_REG_19_ DATAO_REG_18_ DATAO_REG_17_ 
+ DATAO_REG_16_ DATAO_REG_15_ DATAO_REG_14_ DATAO_REG_13_ DATAO_REG_12_ 
+ DATAO_REG_11_ DATAO_REG_10_ DATAO_REG_9_ DATAO_REG_8_ DATAO_REG_7_ 
+ DATAO_REG_6_ DATAO_REG_5_ DATAO_REG_4_ DATAO_REG_3_ DATAO_REG_2_ DATAO_REG_1_ 
+ DATAO_REG_0_ BE_N_REG_3__EXTRA BE_N_REG_2__EXTRA BE_N_REG_1__EXTRA 
+ BE_N_REG_0__EXTRA ADDRESS_REG_29__EXTRA ADDRESS_REG_28__EXTRA 
+ ADDRESS_REG_27__EXTRA ADDRESS_REG_26__EXTRA ADDRESS_REG_25__EXTRA 
+ ADDRESS_REG_24__EXTRA ADDRESS_REG_23__EXTRA ADDRESS_REG_22__EXTRA 
+ ADDRESS_REG_21__EXTRA ADDRESS_REG_20__EXTRA ADDRESS_REG_19__EXTRA 
+ ADDRESS_REG_18__EXTRA ADDRESS_REG_17__EXTRA ADDRESS_REG_16__EXTRA 
+ ADDRESS_REG_15__EXTRA ADDRESS_REG_14__EXTRA ADDRESS_REG_13__EXTRA 
+ ADDRESS_REG_12__EXTRA ADDRESS_REG_11__EXTRA ADDRESS_REG_10__EXTRA 
+ ADDRESS_REG_9__EXTRA ADDRESS_REG_8__EXTRA ADDRESS_REG_7__EXTRA 
+ ADDRESS_REG_6__EXTRA ADDRESS_REG_5__EXTRA ADDRESS_REG_4__EXTRA 
+ ADDRESS_REG_3__EXTRA ADDRESS_REG_2__EXTRA ADDRESS_REG_1__EXTRA 
+ ADDRESS_REG_0__EXTRA STATE_REG_2_ STATE_REG_1_ STATE_REG_0_ DATAWIDTH_REG_0_ 
+ DATAWIDTH_REG_1_ DATAWIDTH_REG_2_ DATAWIDTH_REG_3_ DATAWIDTH_REG_4_ 
+ DATAWIDTH_REG_5_ DATAWIDTH_REG_6_ DATAWIDTH_REG_7_ DATAWIDTH_REG_8_ 
+ DATAWIDTH_REG_9_ DATAWIDTH_REG_10_ DATAWIDTH_REG_11_ DATAWIDTH_REG_12_ 
+ DATAWIDTH_REG_13_ DATAWIDTH_REG_14_ DATAWIDTH_REG_15_ DATAWIDTH_REG_16_ 
+ DATAWIDTH_REG_17_ DATAWIDTH_REG_18_ DATAWIDTH_REG_19_ DATAWIDTH_REG_20_ 
+ DATAWIDTH_REG_21_ DATAWIDTH_REG_22_ DATAWIDTH_REG_23_ DATAWIDTH_REG_24_ 
+ DATAWIDTH_REG_25_ DATAWIDTH_REG_26_ DATAWIDTH_REG_27_ DATAWIDTH_REG_28_ 
+ DATAWIDTH_REG_29_ DATAWIDTH_REG_30_ DATAWIDTH_REG_31_ STATE2_REG_3_ 
+ STATE2_REG_2_ STATE2_REG_1_ STATE2_REG_0_ INSTQUEUE_REG_15__7_ 
+ INSTQUEUE_REG_15__6_ INSTQUEUE_REG_15__5_ INSTQUEUE_REG_15__4_ 
+ INSTQUEUE_REG_15__3_ INSTQUEUE_REG_15__2_ INSTQUEUE_REG_15__1_ 
+ INSTQUEUE_REG_15__0_ INSTQUEUE_REG_14__7_ INSTQUEUE_REG_14__6_ 
+ INSTQUEUE_REG_14__5_ INSTQUEUE_REG_14__4_ INSTQUEUE_REG_14__3_ 
+ INSTQUEUE_REG_14__2_ INSTQUEUE_REG_14__1_ INSTQUEUE_REG_14__0_ 
+ INSTQUEUE_REG_13__7_ INSTQUEUE_REG_13__6_ INSTQUEUE_REG_13__5_ 
+ INSTQUEUE_REG_13__4_ INSTQUEUE_REG_13__3_ INSTQUEUE_REG_13__2_ 
+ INSTQUEUE_REG_13__1_ INSTQUEUE_REG_13__0_ INSTQUEUE_REG_12__7_ 
+ INSTQUEUE_REG_12__6_ INSTQUEUE_REG_12__5_ INSTQUEUE_REG_12__4_ 
+ INSTQUEUE_REG_12__3_ INSTQUEUE_REG_12__2_ INSTQUEUE_REG_12__1_ 
+ INSTQUEUE_REG_12__0_ INSTQUEUE_REG_11__7_ INSTQUEUE_REG_11__6_ 
+ INSTQUEUE_REG_11__5_ INSTQUEUE_REG_11__4_ INSTQUEUE_REG_11__3_ 
+ INSTQUEUE_REG_11__2_ INSTQUEUE_REG_11__1_ INSTQUEUE_REG_11__0_ 
+ INSTQUEUE_REG_10__7_ INSTQUEUE_REG_10__6_ INSTQUEUE_REG_10__5_ 
+ INSTQUEUE_REG_10__4_ INSTQUEUE_REG_10__3_ INSTQUEUE_REG_10__2_ 
+ INSTQUEUE_REG_10__1_ INSTQUEUE_REG_10__0_ INSTQUEUE_REG_9__7_ 
+ INSTQUEUE_REG_9__6_ INSTQUEUE_REG_9__5_ INSTQUEUE_REG_9__4_ 
+ INSTQUEUE_REG_9__3_ INSTQUEUE_REG_9__2_ INSTQUEUE_REG_9__1_ 
+ INSTQUEUE_REG_9__0_ INSTQUEUE_REG_8__7_ INSTQUEUE_REG_8__6_ 
+ INSTQUEUE_REG_8__5_ INSTQUEUE_REG_8__4_ INSTQUEUE_REG_8__3_ 
+ INSTQUEUE_REG_8__2_ INSTQUEUE_REG_8__1_ INSTQUEUE_REG_8__0_ 
+ INSTQUEUE_REG_7__7_ INSTQUEUE_REG_7__6_ INSTQUEUE_REG_7__5_ 
+ INSTQUEUE_REG_7__4_ INSTQUEUE_REG_7__3_ INSTQUEUE_REG_7__2_ 
+ INSTQUEUE_REG_7__1_ INSTQUEUE_REG_7__0_ INSTQUEUE_REG_6__7_ 
+ INSTQUEUE_REG_6__6_ INSTQUEUE_REG_6__5_ INSTQUEUE_REG_6__4_ 
+ INSTQUEUE_REG_6__3_ INSTQUEUE_REG_6__2_ INSTQUEUE_REG_6__1_ 
+ INSTQUEUE_REG_6__0_ INSTQUEUE_REG_5__7_ INSTQUEUE_REG_5__6_ 
+ INSTQUEUE_REG_5__5_ INSTQUEUE_REG_5__4_ INSTQUEUE_REG_5__3_ 
+ INSTQUEUE_REG_5__2_ INSTQUEUE_REG_5__1_ INSTQUEUE_REG_5__0_ 
+ INSTQUEUE_REG_4__7_ INSTQUEUE_REG_4__6_ INSTQUEUE_REG_4__5_ 
+ INSTQUEUE_REG_4__4_ INSTQUEUE_REG_4__3_ INSTQUEUE_REG_4__2_ 
+ INSTQUEUE_REG_4__1_ INSTQUEUE_REG_4__0_ INSTQUEUE_REG_3__7_ 
+ INSTQUEUE_REG_3__6_ INSTQUEUE_REG_3__5_ INSTQUEUE_REG_3__4_ 
+ INSTQUEUE_REG_3__3_ INSTQUEUE_REG_3__2_ INSTQUEUE_REG_3__1_ 
+ INSTQUEUE_REG_3__0_ INSTQUEUE_REG_2__7_ INSTQUEUE_REG_2__6_ 
+ INSTQUEUE_REG_2__5_ INSTQUEUE_REG_2__4_ INSTQUEUE_REG_2__3_ 
+ INSTQUEUE_REG_2__2_ INSTQUEUE_REG_2__1_ INSTQUEUE_REG_2__0_ 
+ INSTQUEUE_REG_1__7_ INSTQUEUE_REG_1__6_ INSTQUEUE_REG_1__5_ 
+ INSTQUEUE_REG_1__4_ INSTQUEUE_REG_1__3_ INSTQUEUE_REG_1__2_ 
+ INSTQUEUE_REG_1__1_ INSTQUEUE_REG_1__0_ INSTQUEUE_REG_0__7_ 
+ INSTQUEUE_REG_0__6_ INSTQUEUE_REG_0__5_ INSTQUEUE_REG_0__4_ 
+ INSTQUEUE_REG_0__3_ INSTQUEUE_REG_0__2_ INSTQUEUE_REG_0__1_ 
+ INSTQUEUE_REG_0__0_ INSTQUEUERD_ADDR_REG_4_ INSTQUEUERD_ADDR_REG_3_ 
+ INSTQUEUERD_ADDR_REG_2_ INSTQUEUERD_ADDR_REG_1_ INSTQUEUERD_ADDR_REG_0_ 
+ INSTQUEUEWR_ADDR_REG_4_ INSTQUEUEWR_ADDR_REG_3_ INSTQUEUEWR_ADDR_REG_2_ 
+ INSTQUEUEWR_ADDR_REG_1_ INSTQUEUEWR_ADDR_REG_0_ INSTADDRPOINTER_REG_0_ 
+ INSTADDRPOINTER_REG_1_ INSTADDRPOINTER_REG_2_ INSTADDRPOINTER_REG_3_ 
+ INSTADDRPOINTER_REG_4_ INSTADDRPOINTER_REG_5_ INSTADDRPOINTER_REG_6_ 
+ INSTADDRPOINTER_REG_7_ INSTADDRPOINTER_REG_8_ INSTADDRPOINTER_REG_9_ 
+ INSTADDRPOINTER_REG_10_ INSTADDRPOINTER_REG_11_ INSTADDRPOINTER_REG_12_ 
+ INSTADDRPOINTER_REG_13_ INSTADDRPOINTER_REG_14_ INSTADDRPOINTER_REG_15_ 
+ INSTADDRPOINTER_REG_16_ INSTADDRPOINTER_REG_17_ INSTADDRPOINTER_REG_18_ 
+ INSTADDRPOINTER_REG_19_ INSTADDRPOINTER_REG_20_ INSTADDRPOINTER_REG_21_ 
+ INSTADDRPOINTER_REG_22_ INSTADDRPOINTER_REG_23_ INSTADDRPOINTER_REG_24_ 
+ INSTADDRPOINTER_REG_25_ INSTADDRPOINTER_REG_26_ INSTADDRPOINTER_REG_27_ 
+ INSTADDRPOINTER_REG_28_ INSTADDRPOINTER_REG_29_ INSTADDRPOINTER_REG_30_ 
+ INSTADDRPOINTER_REG_31_ PHYADDRPOINTER_REG_0_ PHYADDRPOINTER_REG_1_ 
+ PHYADDRPOINTER_REG_2_ PHYADDRPOINTER_REG_3_ PHYADDRPOINTER_REG_4_ 
+ PHYADDRPOINTER_REG_5_ PHYADDRPOINTER_REG_6_ PHYADDRPOINTER_REG_7_ 
+ PHYADDRPOINTER_REG_8_ PHYADDRPOINTER_REG_9_ PHYADDRPOINTER_REG_10_ 
+ PHYADDRPOINTER_REG_11_ PHYADDRPOINTER_REG_12_ PHYADDRPOINTER_REG_13_ 
+ PHYADDRPOINTER_REG_14_ PHYADDRPOINTER_REG_15_ PHYADDRPOINTER_REG_16_ 
+ PHYADDRPOINTER_REG_17_ PHYADDRPOINTER_REG_18_ PHYADDRPOINTER_REG_19_ 
+ PHYADDRPOINTER_REG_20_ PHYADDRPOINTER_REG_21_ PHYADDRPOINTER_REG_22_ 
+ PHYADDRPOINTER_REG_23_ PHYADDRPOINTER_REG_24_ PHYADDRPOINTER_REG_25_ 
+ PHYADDRPOINTER_REG_26_ PHYADDRPOINTER_REG_27_ PHYADDRPOINTER_REG_28_ 
+ PHYADDRPOINTER_REG_29_ PHYADDRPOINTER_REG_30_ PHYADDRPOINTER_REG_31_ 
+ LWORD_REG_15_ LWORD_REG_14_ LWORD_REG_13_ LWORD_REG_12_ LWORD_REG_11_ 
+ LWORD_REG_10_ LWORD_REG_9_ LWORD_REG_8_ LWORD_REG_7_ LWORD_REG_6_ 
+ LWORD_REG_5_ LWORD_REG_4_ LWORD_REG_3_ LWORD_REG_2_ LWORD_REG_1_ LWORD_REG_0_ 
+ UWORD_REG_14_ UWORD_REG_13_ UWORD_REG_12_ UWORD_REG_11_ UWORD_REG_10_ 
+ UWORD_REG_9_ UWORD_REG_8_ UWORD_REG_7_ UWORD_REG_6_ UWORD_REG_5_ UWORD_REG_4_ 
+ UWORD_REG_3_ UWORD_REG_2_ UWORD_REG_1_ UWORD_REG_0_ DATAO_REG_0__EXTRA 
+ DATAO_REG_1__EXTRA DATAO_REG_2__EXTRA DATAO_REG_3__EXTRA DATAO_REG_4__EXTRA 
+ DATAO_REG_5__EXTRA DATAO_REG_6__EXTRA DATAO_REG_7__EXTRA DATAO_REG_8__EXTRA 
+ DATAO_REG_9__EXTRA DATAO_REG_10__EXTRA DATAO_REG_11__EXTRA 
+ DATAO_REG_12__EXTRA DATAO_REG_13__EXTRA DATAO_REG_14__EXTRA 
+ DATAO_REG_15__EXTRA DATAO_REG_16__EXTRA DATAO_REG_17__EXTRA 
+ DATAO_REG_18__EXTRA DATAO_REG_19__EXTRA DATAO_REG_20__EXTRA 
+ DATAO_REG_21__EXTRA DATAO_REG_22__EXTRA DATAO_REG_23__EXTRA 
+ DATAO_REG_24__EXTRA DATAO_REG_25__EXTRA DATAO_REG_26__EXTRA 
+ DATAO_REG_27__EXTRA DATAO_REG_28__EXTRA DATAO_REG_29__EXTRA 
+ DATAO_REG_30__EXTRA DATAO_REG_31__EXTRA EAX_REG_0_ EAX_REG_1_ EAX_REG_2_ 
+ EAX_REG_3_ EAX_REG_4_ EAX_REG_5_ EAX_REG_6_ EAX_REG_7_ EAX_REG_8_ EAX_REG_9_ 
+ EAX_REG_10_ EAX_REG_11_ EAX_REG_12_ EAX_REG_13_ EAX_REG_14_ EAX_REG_15_ 
+ EAX_REG_16_ EAX_REG_17_ EAX_REG_18_ EAX_REG_19_ EAX_REG_20_ EAX_REG_21_ 
+ EAX_REG_22_ EAX_REG_23_ EAX_REG_24_ EAX_REG_25_ EAX_REG_26_ EAX_REG_27_ 
+ EAX_REG_28_ EAX_REG_29_ EAX_REG_30_ EAX_REG_31_ EBX_REG_0_ EBX_REG_1_ 
+ EBX_REG_2_ EBX_REG_3_ EBX_REG_4_ EBX_REG_5_ EBX_REG_6_ EBX_REG_7_ EBX_REG_8_ 
+ EBX_REG_9_ EBX_REG_10_ EBX_REG_11_ EBX_REG_12_ EBX_REG_13_ EBX_REG_14_ 
+ EBX_REG_15_ EBX_REG_16_ EBX_REG_17_ EBX_REG_18_ EBX_REG_19_ EBX_REG_20_ 
+ EBX_REG_21_ EBX_REG_22_ EBX_REG_23_ EBX_REG_24_ EBX_REG_25_ EBX_REG_26_ 
+ EBX_REG_27_ EBX_REG_28_ EBX_REG_29_ EBX_REG_30_ EBX_REG_31_ REIP_REG_0_ 
+ REIP_REG_1_ REIP_REG_2_ REIP_REG_3_ REIP_REG_4_ REIP_REG_5_ REIP_REG_6_ 
+ REIP_REG_7_ REIP_REG_8_ REIP_REG_9_ REIP_REG_10_ REIP_REG_11_ REIP_REG_12_ 
+ REIP_REG_13_ REIP_REG_14_ REIP_REG_15_ REIP_REG_16_ REIP_REG_17_ REIP_REG_18_ 
+ REIP_REG_19_ REIP_REG_20_ REIP_REG_21_ REIP_REG_22_ REIP_REG_23_ REIP_REG_24_ 
+ REIP_REG_25_ REIP_REG_26_ REIP_REG_27_ REIP_REG_28_ REIP_REG_29_ REIP_REG_30_ 
+ REIP_REG_31_ BYTEENABLE_REG_3_ BYTEENABLE_REG_2_ BYTEENABLE_REG_1_ 
+ BYTEENABLE_REG_0_ W_R_N_REG_EXTRA FLUSH_REG MORE_REG STATEBS16_REG 
+ REQUESTPENDING_REG D_C_N_REG_EXTRA M_IO_N_REG_EXTRA CODEFETCH_REG 
+ ADS_N_REG_EXTRA READREQUEST_REG MEMORYFETCH_REG DATAI_31_ DATAI_30_ DATAI_29_ 
+ DATAI_28_ DATAI_27_ DATAI_26_ DATAI_25_ DATAI_24_ DATAI_23_ DATAI_22_ 
+ DATAI_21_ DATAI_20_ DATAI_19_ DATAI_18_ DATAI_17_ DATAI_16_ DATAI_15_ 
+ DATAI_14_ DATAI_13_ DATAI_12_ DATAI_11_ DATAI_10_ DATAI_9_ DATAI_8_ DATAI_7_ 
+ DATAI_6_ DATAI_5_ DATAI_4_ DATAI_3_ DATAI_2_ DATAI_1_ DATAI_0_ NA_N BS16_N 
+ READY_N HOLD 
XAND2_5 U2353 U4219 STATE2_REG_2_ and 
XAND2_6 U2354 U4253 U4465 and 
XAND2_7 U2355 U3221 U2450 and 
XAND2_8 U2356 R2238_U6 U4180 and 
XAND3_9 U2357 U5947 U3853 R2167_U17 and 
XAND2_10 U2358 U2388 U4212 and 
XAND2_11 U2359 STATE2_REG_2_ U3418 and 
XAND2_12 U2360 STATE2_REG_2_ U3401 and 
XAND2_13 U2361 U4212 STATE2_REG_3_ and 
XAND2_14 U2362 U2359 U4196 and 
XAND2_15 U2363 U2359 U4198 and 
XAND2_16 U2364 U3852 U3403 and 
XAND2_17 U2365 U4249 U3403 and 
XAND3_18 U2366 U3418 STATE2_REG_1_ U3417 and 
XAND3_19 U2367 STATE2_REG_1_ U3418 R2337_U58 and 
XAND2_20 U2368 U4223 STATE2_REG_0_ and 
XAND2_21 U2369 U2362 U4485 and 
XAND2_22 U2370 U3401 U3250 and 
XAND2_23 U2371 U4210 U4437 and 
XAND2_24 U2372 STATE2_REG_0_ U3403 and 
XAND2_25 U2373 STATE2_REG_3_ U3418 and 
XAND2_26 U2374 U2360 U4202 and 
XAND2_27 U2375 U2360 U4204 and 
XAND2_28 U2376 U5786 U3403 and 
XAND2_29 U2377 U3750 U3401 and 
XAND2_30 U2378 U2360 U5557 and 
XAND2_31 U2379 U2363 U3267 and 
XAND2_32 U2380 U2360 U7596 and 
XAND2_33 U2381 U2357 U3258 and 
XAND2_34 U2382 U2357 U4465 and 
XAND2_35 U2383 U4210 U3378 and 
XAND2_36 U2384 STATE2_REG_0_ U3404 and 
XAND2_37 U2385 U3404 U3281 and 
XAND2_38 U2386 U4211 U3410 and 
XAND2_39 U2387 U3872 U4211 and 
XAND2_40 U2388 STATEBS16_REG U4197 and 
XAND2_41 U2389 U2452 U7482 and 
XAND2_42 U2390 DATAI_0_ U4212 and 
XAND2_43 U2391 DATAI_1_ U4212 and 
XAND2_44 U2392 DATAI_2_ U4212 and 
XAND2_45 U2393 DATAI_3_ U4212 and 
XAND2_46 U2394 DATAI_4_ U4212 and 
XAND2_47 U2395 DATAI_5_ U4212 and 
XAND2_48 U2396 DATAI_6_ U4212 and 
XAND2_49 U2397 DATAI_7_ U4212 and 
XAND2_50 U2398 DATAI_24_ U2358 and 
XAND2_51 U2399 DATAI_16_ U2358 and 
XAND2_52 U2400 DATAI_25_ U2358 and 
XAND2_53 U2401 DATAI_17_ U2358 and 
XAND2_54 U2402 DATAI_26_ U2358 and 
XAND2_55 U2403 DATAI_18_ U2358 and 
XAND2_56 U2404 DATAI_27_ U2358 and 
XAND2_57 U2405 DATAI_19_ U2358 and 
XAND2_58 U2406 DATAI_28_ U2358 and 
XAND2_59 U2407 DATAI_20_ U2358 and 
XAND2_60 U2408 DATAI_29_ U2358 and 
XAND2_61 U2409 DATAI_21_ U2358 and 
XAND2_62 U2410 DATAI_30_ U2358 and 
XAND2_63 U2411 DATAI_22_ U2358 and 
XAND2_64 U2412 DATAI_31_ U2358 and 
XAND2_65 U2413 DATAI_23_ U2358 and 
XAND2_66 U2414 U2361 U3258 and 
XAND2_67 U2415 U2361 U3378 and 
XAND2_68 U2416 U2361 U3264 and 
XAND2_69 U2417 U2361 U3271 and 
XAND2_70 U2418 U2361 U3270 and 
XAND2_71 U2419 U2361 U3265 and 
XAND2_72 U2420 U2361 U4161 and 
XAND2_73 U2421 U2361 U4159 and 
XAND2_74 U2422 U4211 U5449 and 
XAND2_75 U2423 U4211 U4219 and 
XAND2_76 U2424 U2384 U3271 and 
XAND2_77 U2425 U2368 U2448 and 
XAND2_78 U2426 U3877 U3418 and 
XAND2_80 U2428 STATE2_REG_2_ STATE2_REG_1_ and 
XAND2_81 U2429 U6354 U3418 and 
XAND2_82 U2430 STATE2_REG_1_ U3374 and 
XAND2_83 U2431 U4187 U7482 and 
XAND2_84 U2432 U3442 U3347 and 
XAND2_85 U2433 U4528 U3442 and 
XAND2_86 U2434 U7684 U3347 and 
XAND2_87 U2435 U4528 U7684 and 
XAND2_88 U2436 U3222 U3288 and 
XAND2_89 U2437 U4531 U3288 and 
XAND2_90 U2438 R2182_U42 R2182_U25 and 
XAND2_91 U2439 R2182_U42 U3303 and 
XAND2_92 U2440 R2182_U25 U3304 and 
XAND2_94 U2442 R2182_U33 R2182_U34 and 
XAND2_95 U2443 R2182_U33 U3305 and 
XAND2_96 U2444 R2182_U34 U3306 and 
XAND2_98 U2446 STATE2_REG_1_ U3458 and 
XAND2_99 U2447 U3565 U2452 and 
XAND2_100 U2448 R2167_U17 U3271 and 
XAND2_101 U2449 U4482 U3258 and 
XAND2_102 U2450 STATE2_REG_0_ U4388 and 
XAND2_103 U2451 U4239 STATE2_REG_0_ and 
XAND4_104 U2452 U4388 U3264 U3378 U4161 and 
XAND4_105 U2453 INSTQUEUERD_ADDR_REG_3_ INSTQUEUERD_ADDR_REG_0_ INSTQUEUERD_ADDR_REG_1_ INSTQUEUERD_ADDR_REG_2_ and 
XAND2_106 U2454 INSTQUEUERD_ADDR_REG_1_ U3253 and 
XAND4_107 U2455 INSTQUEUERD_ADDR_REG_3_ INSTQUEUERD_ADDR_REG_1_ INSTQUEUERD_ADDR_REG_2_ U3253 and 
XAND2_108 U2456 INSTQUEUERD_ADDR_REG_0_ U3252 and 
XAND4_109 U2457 INSTQUEUERD_ADDR_REG_3_ INSTQUEUERD_ADDR_REG_0_ INSTQUEUERD_ADDR_REG_2_ U3252 and 
XAND2_110 U2458 U3495 U4366 and 
XAND4_111 U2459 INSTQUEUERD_ADDR_REG_3_ INSTQUEUERD_ADDR_REG_0_ INSTQUEUERD_ADDR_REG_1_ U3251 and 
XAND3_112 U2460 U3251 U3253 INSTQUEUERD_ADDR_REG_1_ and 
XAND2_113 U2461 U3494 U3493 and 
XAND3_114 U2462 U3251 U3252 INSTQUEUERD_ADDR_REG_0_ and 
XAND2_115 U2463 U3492 U3491 and 
XAND2_116 U2464 INSTQUEUERD_ADDR_REG_3_ U4368 and 
XAND2_117 U2465 U3490 U3489 and 
XAND2_118 U2466 U3488 U3487 and 
XAND3_119 U2467 INSTQUEUERD_ADDR_REG_2_ U3257 U4366 and 
XAND2_120 U2468 U3486 U3485 and 
XAND3_122 U2470 INSTQUEUERD_ADDR_REG_1_ U3253 U2469 and 
XAND3_123 U2471 INSTQUEUERD_ADDR_REG_0_ U3252 U2469 and 
XAND2_124 U2472 U4368 U3257 and 
XAND3_125 U2473 U7668 U7667 U3393 and 
XAND2_126 U2474 R2144_U49 U3299 and 
XAND2_127 U2475 U3441 U3345 and 
XAND2_128 U2476 R2144_U8 R2144_U49 and 
XAND2_129 U2477 U4516 U2476 and 
XAND2_130 U2478 INSTQUEUEWR_ADDR_REG_2_ INSTQUEUEWR_ADDR_REG_3_ and 
XAND2_131 U2479 INSTQUEUEWR_ADDR_REG_2_ U3290 and 
XAND2_132 U2480 U3302 U4536 and 
XAND2_133 U2481 U4512 U2476 and 
XAND2_134 U2482 U3314 U4594 and 
XAND2_135 U2483 U4513 U2476 and 
XAND2_136 U2484 U3321 U4653 and 
XAND2_137 U2485 U4514 R2144_U43 and 
XAND2_139 U2487 U2486 U2476 and 
XAND2_141 U2489 U3325 U4710 and 
XAND2_142 U2490 U7681 U3345 and 
XAND2_143 U2491 U4517 U4516 and 
XAND2_144 U2492 U3330 U4768 and 
XAND2_145 U2493 U4517 U4512 and 
XAND2_146 U2494 U3334 U4825 and 
XAND2_147 U2495 U4517 U4513 and 
XAND2_148 U2496 U3337 U4883 and 
XAND2_149 U2497 U4517 U2486 and 
XAND2_150 U2498 U3341 U4940 and 
XAND2_151 U2499 U4519 U3441 and 
XAND2_152 U2500 U3346 U3344 and 
XAND2_153 U2501 U4512 U2474 and 
XAND2_154 U2502 U3351 U5053 and 
XAND2_155 U2503 U4513 U2474 and 
XAND2_156 U2504 U3354 U5111 and 
XAND2_157 U2505 U2486 U2474 and 
XAND2_158 U2506 U3358 U5168 and 
XAND2_159 U2507 U4519 U7681 and 
XAND2_161 U2509 U2508 U4516 and 
XAND2_163 U2511 U3361 U5226 and 
XAND2_164 U2512 U2508 U4512 and 
XAND2_165 U2513 U3365 U5283 and 
XAND2_166 U2514 U2508 U4513 and 
XAND2_167 U2515 U3368 U5341 and 
XAND2_168 U2516 U2508 U2486 and 
XAND2_169 U2517 U3372 U5398 and 
XAND3_170 U2518 U7688 U7687 U5456 and 
XAND2_171 U2519 U3732 U5487 and 
XAND2_172 U2520 U4207 U3433 and 
XAND2_173 U2521 INSTQUEUERD_ADDR_REG_0_ U3389 and 
XAND2_174 U2522 U5471 U5499 and 
XAND2_175 U2523 U2522 U2521 and 
XAND2_176 U2524 U3253 U3389 and 
XAND2_177 U2525 U2522 U2524 and 
XAND2_178 U2526 U5507 INSTQUEUERD_ADDR_REG_0_ and 
XAND2_179 U2527 U2522 U2526 and 
XAND2_180 U2528 U5507 U3253 and 
XAND2_181 U2529 U2522 U2528 and 
XAND2_182 U2530 U5471 U3388 and 
XAND2_183 U2531 U2530 U2521 and 
XAND2_184 U2532 U2530 U2524 and 
XAND2_185 U2533 U2530 U2526 and 
XAND2_186 U2534 U2530 U2528 and 
XAND2_187 U2535 U5499 U3425 and 
XAND2_188 U2536 U2535 U2521 and 
XAND2_189 U2537 U2535 U2524 and 
XAND2_190 U2538 U2535 U2526 and 
XAND2_191 U2539 U2535 U2528 and 
XAND2_192 U2540 U3425 U3388 and 
XAND2_193 U2541 U2521 U2540 and 
XAND2_194 U2542 U2524 U2540 and 
XAND2_195 U2543 U2526 U2540 and 
XAND2_196 U2544 U2528 U2540 and 
XAND2_197 U2545 U5468 U7708 and 
XAND2_198 U2546 U2545 U2454 and 
XAND2_199 U2547 U2545 U3486 and 
XAND2_200 U2548 U2545 U4366 and 
XAND2_201 U2549 U2545 U2456 and 
XAND2_202 U2550 U5468 U3443 and 
XAND2_203 U2551 U2550 U2454 and 
XAND2_204 U2552 U2550 U3486 and 
XAND2_205 U2553 U2550 U4366 and 
XAND2_206 U2554 U2550 U2456 and 
XAND2_207 U2555 U7708 U3429 and 
XAND2_208 U2556 U2555 U2454 and 
XAND2_209 U2557 U2555 U3486 and 
XAND2_210 U2558 U2555 U4366 and 
XAND2_211 U2559 U2555 U2456 and 
XAND2_212 U2560 U3443 U3429 and 
XAND2_213 U2561 U2560 U2454 and 
XAND2_214 U2562 U2560 U3486 and 
XAND2_215 U2563 U2560 U4366 and 
XAND2_216 U2564 U2560 U2456 and 
XAND2_217 U2565 U7053 U4367 and 
XAND2_218 U2566 U7053 U2460 and 
XAND2_219 U2567 U7053 U2462 and 
XAND2_220 U2568 U7053 U4368 and 
XAND2_221 U2569 U7053 INSTQUEUERD_ADDR_REG_2_ and 
XAND2_222 U2570 U2569 U3486 and 
XAND2_223 U2571 U2569 U2454 and 
XAND2_224 U2572 U2569 U2456 and 
XAND2_225 U2573 U2569 U4366 and 
XAND2_226 U2574 U4367 U3432 and 
XAND2_227 U2575 U2460 U3432 and 
XAND2_228 U2576 U2462 U3432 and 
XAND2_229 U2577 U4368 U3432 and 
XAND2_230 U2578 INSTQUEUERD_ADDR_REG_2_ U3432 and 
XAND2_231 U2579 U2578 U3486 and 
XAND2_232 U2580 U2578 U2454 and 
XAND2_233 U2581 U2578 U2456 and 
XAND2_234 U2582 U2578 U4366 and 
XAND2_235 U2583 U7778 U4172 and 
XAND2_236 U2584 U2583 U2524 and 
XAND2_237 U2585 U2583 U2521 and 
XAND2_238 U2586 U2583 U2528 and 
XAND2_239 U2587 U2583 U2526 and 
XAND2_240 U2588 U7778 U3439 and 
XAND2_241 U2589 U2588 U2524 and 
XAND2_242 U2590 U2588 U2521 and 
XAND2_243 U2591 U2588 U2528 and 
XAND2_244 U2592 U2588 U2526 and 
XAND2_245 U2593 U4172 U3444 and 
XAND2_246 U2594 U2593 U2524 and 
XAND2_247 U2595 U2593 U2521 and 
XAND2_248 U2596 U2593 U2528 and 
XAND2_249 U2597 U2593 U2526 and 
XAND2_250 U2598 U3444 U3439 and 
XAND2_251 U2599 U2598 U2524 and 
XAND2_252 U2600 U2598 U2521 and 
XAND2_253 U2601 U2598 U2528 and 
XAND2_254 U2602 U2598 U2526 and 
XAND2_255 U2603 STATE2_REG_0_ U3376 and 
XAND2_256 U2604 EBX_REG_31_ U2379 and 
XAND5_257 U2605 U3521 U2607 U3520 U3519 U3518 and 
XAND2_258 U2606 U7492 U3414 and 
XAND2_259 U2607 U7660 U7659 and 
XAND2_260 U2608 U7775 U7774 and 
XAND2_272 U2620 R2144_U145 U6734 and 
XAND2_273 U2621 R2144_U145 U6734 and 
XAND2_274 U2622 R2144_U145 U6734 and 
XAND2_275 U2623 R2144_U145 U6734 and 
XAND2_276 U2624 R2144_U145 U6734 and 
XAND2_277 U2625 R2144_U145 U6734 and 
XAND2_278 U2626 R2144_U145 U6734 and 
XAND2_279 U2627 R2144_U145 U6734 and 
XAND2_280 U2628 R2144_U145 U6734 and 
XAND2_281 U2629 R2144_U145 U6734 and 
XAND2_282 U2630 R2144_U145 U6734 and 
XAND2_283 U2631 R2144_U145 U6734 and 
XAND2_284 U2632 R2144_U145 U6734 and 
XAND2_285 U2633 R2144_U145 U6734 and 
XAND2_286 U2634 R2144_U11 U6734 and 
XAND2_287 U2635 R2144_U37 U6734 and 
XAND2_288 U2636 R2144_U38 U6734 and 
XAND2_289 U2637 R2144_U39 U6734 and 
XAND2_290 U2638 R2144_U40 U6734 and 
XAND2_291 U2639 R2144_U41 U6734 and 
XAND2_292 U2640 R2144_U42 U6734 and 
XAND2_293 U2641 R2144_U30 U6734 and 
XAND2_294 U2642 R2144_U80 U6734 and 
XAND2_295 U2643 R2144_U10 U6734 and 
XAND2_296 U2644 R2144_U9 U6734 and 
XAND2_297 U2645 R2144_U45 U6734 and 
XAND2_298 U2646 R2144_U47 U6734 and 
XAND2_299 U2647 R2144_U8 U6734 and 
XAND2_301 U2649 R2144_U50 U6734 and 
XAND2_302 U2650 STATE2_REG_2_ U6858 and 
XAND2_375 U2723 U7224 U7071 and 
XAND2_376 U2724 U7241 U7071 and 
XAND2_377 U2725 U7258 U7071 and 
XAND2_378 U2726 U7608 U7071 and 
XAND2_379 U2727 U7290 U7071 and 
XAND2_380 U2728 U7307 U7071 and 
XAND2_381 U2729 U7324 U7071 and 
XAND2_382 U2730 U7341 U7071 and 
XAND2_384 U2732 U7071 U7070 and 
XAND2_385 U2733 U7102 U7071 and 
XAND2_386 U2734 U7119 U7071 and 
XAND2_387 U2735 U7606 U7071 and 
XAND2_388 U2736 U7151 U7071 and 
XAND2_389 U2737 U7168 U7071 and 
XAND2_390 U2738 U7185 U7071 and 
XAND2_391 U2739 U7202 U7071 and 
XAND2_392 U2740 INSTQUEUERD_ADDR_REG_4_ U7051 and 
XAND2_394 U2742 U7480 U7479 and 
XAND2_395 U2743 U7494 U7458 and 
XAND2_396 U2744 U7467 U7466 and 
XAND2_405 U2753 U6945 U6897 and 
XAND2_406 U2754 U6962 U6897 and 
XAND2_407 U2755 U6979 U6897 and 
XAND2_408 U2756 U7603 U6897 and 
XAND2_409 U2757 U7011 U6897 and 
XAND2_410 U2758 U7028 U6897 and 
XAND2_411 U2759 U6897 U6896 and 
XAND2_412 U2760 U6914 U6897 and 
XAND2_421 U2769 R2144_U145 U4147 and 
XAND2_422 U2770 U4147 R2144_U145 and 
XAND2_423 U2771 U4147 R2144_U11 and 
XAND2_424 U2772 U4147 R2144_U37 and 
XAND2_425 U2773 U4147 R2144_U38 and 
XAND2_426 U2774 U4147 R2144_U39 and 
XAND2_427 U2775 U4147 R2144_U40 and 
XAND2_428 U2776 U4147 R2144_U41 and 
XAND2_429 U2777 U4147 R2144_U42 and 
XAND2_430 U2778 U4147 R2144_U30 and 
XAND2_544 U2892 DATAO_REG_31_ U6043 and 
XAND2_671 U3019 INSTQUEUEWR_ADDR_REG_4_ U5525 and 
XAND2_803 U3151 DATAWIDTH_REG_31_ U7638 and 
XAND2_804 U3152 DATAWIDTH_REG_30_ U7638 and 
XAND2_805 U3153 DATAWIDTH_REG_29_ U7638 and 
XAND2_806 U3154 DATAWIDTH_REG_28_ U7638 and 
XAND2_807 U3155 DATAWIDTH_REG_27_ U7638 and 
XAND2_808 U3156 DATAWIDTH_REG_26_ U7638 and 
XAND2_809 U3157 DATAWIDTH_REG_25_ U7638 and 
XAND2_810 U3158 DATAWIDTH_REG_24_ U7638 and 
XAND2_811 U3159 DATAWIDTH_REG_23_ U7638 and 
XAND2_812 U3160 DATAWIDTH_REG_22_ U7638 and 
XAND2_813 U3161 DATAWIDTH_REG_21_ U7638 and 
XAND2_814 U3162 DATAWIDTH_REG_20_ U7638 and 
XAND2_815 U3163 DATAWIDTH_REG_19_ U7638 and 
XAND2_816 U3164 DATAWIDTH_REG_18_ U7638 and 
XAND2_817 U3165 DATAWIDTH_REG_17_ U7638 and 
XAND2_818 U3166 DATAWIDTH_REG_16_ U7638 and 
XAND2_819 U3167 DATAWIDTH_REG_15_ U7638 and 
XAND2_820 U3168 DATAWIDTH_REG_14_ U7638 and 
XAND2_821 U3169 DATAWIDTH_REG_13_ U7638 and 
XAND2_822 U3170 DATAWIDTH_REG_12_ U7638 and 
XAND2_823 U3171 DATAWIDTH_REG_11_ U7638 and 
XAND2_824 U3172 DATAWIDTH_REG_10_ U7638 and 
XAND2_825 U3173 DATAWIDTH_REG_9_ U7638 and 
XAND2_826 U3174 DATAWIDTH_REG_8_ U7638 and 
XAND2_827 U3175 DATAWIDTH_REG_7_ U7638 and 
XAND2_828 U3176 DATAWIDTH_REG_6_ U7638 and 
XAND2_829 U3177 DATAWIDTH_REG_5_ U7638 and 
XAND2_830 U3178 DATAWIDTH_REG_4_ U7638 and 
XAND2_831 U3179 DATAWIDTH_REG_3_ U7638 and 
XAND2_832 U3180 DATAWIDTH_REG_2_ U7638 and 
XAND2_1102 U3450 U3242 U4167 and 
XAND3_1106 U3454 U2427 U4203 R2182_U24 and 
XAND2_1118 U3466 R2358_U91 U4437 and 
XAND2_1127 U3475 R2182_U24 U4203 and 
XAND2_1133 U3481 STATE_REG_1_ READY_N and 
XAND2_1134 U3482 U4356 U3239 and 
XAND2_1135 U3483 U4358 U3237 and 
XAND2_1136 U3484 REQUESTPENDING_REG STATE_REG_0_ and 
XAND2_1138 U3486 INSTQUEUERD_ADDR_REG_0_ INSTQUEUERD_ADDR_REG_1_ and 
XAND2_1140 U3488 INSTQUEUERD_ADDR_REG_0_ INSTQUEUERD_ADDR_REG_2_ and 
XAND2_1142 U3490 INSTQUEUERD_ADDR_REG_1_ INSTQUEUERD_ADDR_REG_2_ and 
XAND2_1144 U3492 INSTQUEUERD_ADDR_REG_3_ INSTQUEUERD_ADDR_REG_0_ and 
XAND2_1146 U3494 INSTQUEUERD_ADDR_REG_3_ INSTQUEUERD_ADDR_REG_1_ and 
XAND2_1147 U3495 INSTQUEUERD_ADDR_REG_3_ INSTQUEUERD_ADDR_REG_2_ and 
XAND4_1148 U3496 U4374 U4373 U4372 U4371 and 
XAND4_1149 U3497 U4378 U4377 U4376 U4375 and 
XAND4_1150 U3498 U4382 U4381 U4380 U4379 and 
XAND4_1151 U3499 U4386 U4385 U4384 U4383 and 
XAND4_1152 U3500 U4424 U4423 U4422 U4421 and 
XAND4_1153 U3501 U4428 U4427 U4426 U4425 and 
XAND4_1154 U3502 U4432 U4431 U4430 U4429 and 
XAND4_1155 U3503 U4436 U4435 U4434 U4433 and 
XAND4_1156 U3504 U4407 U4406 U4405 U4404 and 
XAND4_1157 U3505 U4411 U4410 U4409 U4408 and 
XAND4_1158 U3506 U4415 U4414 U4413 U4412 and 
XAND4_1159 U3507 U4419 U4418 U4417 U4416 and 
XAND2_1161 U3509 INSTQUEUE_REG_5__5_ INSTQUEUERD_ADDR_REG_0_ and 
XAND2_1163 U3511 INSTQUEUE_REG_6__5_ INSTQUEUERD_ADDR_REG_1_ and 
XAND2_1164 U3512 INSTQUEUERD_ADDR_REG_3_ INSTQUEUE_REG_8__5_ and 
XAND2_1166 U3514 INSTQUEUE_REG_10__5_ INSTQUEUERD_ADDR_REG_3_ and 
XAND2_1167 U3515 INSTQUEUE_REG_12__5_ INSTQUEUERD_ADDR_REG_3_ and 
XAND2_1169 U3517 INSTQUEUE_REG_9__5_ INSTQUEUERD_ADDR_REG_0_ and 
XAND4_1170 U3518 U4392 U4391 U4390 U4389 and 
XAND4_1171 U3519 U4396 U4395 U4394 U4393 and 
XAND4_1172 U3520 U4400 U4399 U4398 U4397 and 
XAND2_1173 U3521 U4402 U4401 and 
XAND2_1175 U3523 INSTQUEUE_REG_3__6_ INSTQUEUERD_ADDR_REG_0_ and 
XAND4_1176 U3524 U4441 U4440 U4439 U4438 and 
XAND3_1177 U3525 U4443 U4442 U4444 and 
XAND3_1178 U3526 U4446 U4445 U4447 and 
XAND4_1179 U3527 U7666 U7665 U7664 U7663 and 
XAND2_1181 U3529 INSTQUEUE_REG_1__4_ INSTQUEUERD_ADDR_REG_0_ and 
XAND2_1183 U3531 INSTQUEUE_REG_4__4_ INSTQUEUERD_ADDR_REG_2_ and 
XAND2_1185 U3533 INSTQUEUE_REG_12__4_ INSTQUEUERD_ADDR_REG_2_ and 
XAND2_1186 U3534 INSTQUEUERD_ADDR_REG_0_ INSTQUEUERD_ADDR_REG_2_ and 
XAND2_1187 U3535 INSTQUEUE_REG_13__4_ INSTQUEUERD_ADDR_REG_3_ and 
XAND2_1189 U3537 INSTQUEUE_REG_6__4_ INSTQUEUERD_ADDR_REG_2_ and 
XAND2_1190 U3538 INSTQUEUERD_ADDR_REG_1_ INSTQUEUERD_ADDR_REG_2_ and 
XAND2_1191 U3539 INSTQUEUE_REG_14__4_ INSTQUEUERD_ADDR_REG_3_ and 
XAND2_1193 U3541 INSTQUEUE_REG_9__4_ INSTQUEUERD_ADDR_REG_3_ and 
XAND4_1194 U3542 U7646 U7645 U7644 U7643 and 
XAND4_1195 U3543 U7650 U7649 U7648 U7647 and 
XAND4_1196 U3544 U7654 U7653 U7652 U7651 and 
XAND4_1197 U3545 U7658 U7657 U7656 U7655 and 
XAND3_1198 U3546 U3378 U3270 U7482 and 
XAND3_1199 U3547 U4448 U2605 U4388 and 
XAND4_1200 U3548 U4469 U4468 U4467 U4466 and 
XAND4_1201 U3549 U4473 U4472 U4471 U4470 and 
XAND4_1202 U3550 U4477 U4476 U4475 U4474 and 
XAND4_1203 U3551 U4481 U4480 U4479 U4478 and 
XAND4_1204 U3552 U4452 U4451 U4450 U4449 and 
XAND4_1205 U3553 U4456 U4455 U4454 U4453 and 
XAND4_1206 U3554 U4460 U4459 U4458 U4457 and 
XAND4_1207 U3555 U4464 U4463 U4462 U4461 and 
XAND2_1208 U3556 U4365 U4196 and 
XAND4_1209 U3557 U4407 U4406 U4405 U4404 and 
XAND4_1210 U3558 U4411 U4410 U4409 U4408 and 
XAND4_1211 U3559 U4415 U4414 U4413 U4412 and 
XAND4_1212 U3560 U4419 U4418 U4417 U4416 and 
XAND4_1213 U3561 U4392 U4391 U4390 U4389 and 
XAND4_1214 U3562 U4396 U4395 U4394 U4393 and 
XAND4_1215 U3563 U4400 U4399 U4398 U4397 and 
XAND2_1216 U3564 U4402 U4401 and 
XAND2_1217 U3565 U4387 U4159 and 
XAND2_1218 U3566 U4237 U3270 and 
XAND4_1219 U3567 U3271 U3270 U4388 U7482 and 
XAND2_1220 U3568 U4205 U3387 and 
XAND2_1221 U3569 STATE2_REG_2_ U7591 and 
XAND2_1222 U3570 U4503 U3284 and 
XAND2_1223 U3571 U2427 U3244 and 
XAND2_1224 U3572 STATE2_REG_3_ STATE2_REG_0_ and 
XAND2_1225 U3573 U4234 U4229 and 
XAND2_1226 U3574 U3573 U4511 and 
XAND3_1227 U3575 U4540 U4541 U4212 and 
XAND3_1228 U3576 U4549 U4548 U4550 and 
XAND3_1229 U3577 U4554 U4553 U4555 and 
XAND3_1230 U3578 U4559 U4558 U4560 and 