$ Spice netlist generated by v2lvs
$ v2013.3_28.19    Tue Sep 3 16:44:15 PDT 2013

.SUBCKT b17_ras U247 U246 U245 U244 U243 U242 U241 U240 U239 U238 U237 U236 
+ U235 U234 U233 U232 U231 U230 U229 U228 U227 U226 U225 U224 U223 U222 U221 
+ U220 U219 U218 U217 U216 U251 U252 U253 U254 U255 U256 U257 U258 U259 U260 
+ U261 U262 U263 U264 U265 U266 U267 U268 U269 U270 U271 U272 U273 U274 U275 
+ U276 U277 U278 U279 U280 U281 U282 U212 U215 U213 U214 P3_U3274 P3_U3275 
+ P3_U3276 P3_U3277 P3_U3061 P3_U3060 P3_U3059 P3_U3058 P3_U3057 P3_U3056 
+ P3_U3055 P3_U3054 P3_U3053 P3_U3052 P3_U3051 P3_U3050 P3_U3049 P3_U3048 
+ P3_U3047 P3_U3046 P3_U3045 P3_U3044 P3_U3043 P3_U3042 P3_U3041 P3_U3040 
+ P3_U3039 P3_U3038 P3_U3037 P3_U3036 P3_U3035 P3_U3034 P3_U3033 P3_U3032 
+ P3_U3031 P3_U3030 P3_U3029 P3_U3280 P3_U3281 P3_U3028 P3_U3027 P3_U3026 
+ P3_U3025 P3_U3024 P3_U3023 P3_U3022 P3_U3021 P3_U3020 P3_U3019 P3_U3018 
+ P3_U3017 P3_U3016 P3_U3015 P3_U3014 P3_U3013 P3_U3012 P3_U3011 P3_U3010 
+ P3_U3009 P3_U3008 P3_U3007 P3_U3006 P3_U3005 P3_U3004 P3_U3003 P3_U3002 
+ P3_U3001 P3_U3000 P3_U2999 P3_U3282 P3_U2998 P3_U2997 P3_U2996 P3_U2995 
+ P3_U2994 P3_U2993 P3_U2992 P3_U2991 P3_U2990 P3_U2989 P3_U2988 P3_U2987 
+ P3_U2986 P3_U2985 P3_U2984 P3_U2983 P3_U2982 P3_U2981 P3_U2980 P3_U2979 
+ P3_U2978 P3_U2977 P3_U2976 P3_U2975 P3_U2974 P3_U2973 P3_U2972 P3_U2971 
+ P3_U2970 P3_U2969 P3_U2968 P3_U2967 P3_U2966 P3_U2965 P3_U2964 P3_U2963 
+ P3_U2962 P3_U2961 P3_U2960 P3_U2959 P3_U2958 P3_U2957 P3_U2956 P3_U2955 
+ P3_U2954 P3_U2953 P3_U2952 P3_U2951 P3_U2950 P3_U2949 P3_U2948 P3_U2947 
+ P3_U2946 P3_U2945 P3_U2944 P3_U2943 P3_U2942 P3_U2941 P3_U2940 P3_U2939 
+ P3_U2938 P3_U2937 P3_U2936 P3_U2935 P3_U2934 P3_U2933 P3_U2932 P3_U2931 
+ P3_U2930 P3_U2929 P3_U2928 P3_U2927 P3_U2926 P3_U2925 P3_U2924 P3_U2923 
+ P3_U2922 P3_U2921 P3_U2920 P3_U2919 P3_U2918 P3_U2917 P3_U2916 P3_U2915 
+ P3_U2914 P3_U2913 P3_U2912 P3_U2911 P3_U2910 P3_U2909 P3_U2908 P3_U2907 
+ P3_U2906 P3_U2905 P3_U2904 P3_U2903 P3_U2902 P3_U2901 P3_U2900 P3_U2899 
+ P3_U2898 P3_U2897 P3_U2896 P3_U2895 P3_U2894 P3_U2893 P3_U2892 P3_U2891 
+ P3_U2890 P3_U2889 P3_U2888 P3_U2887 P3_U2886 P3_U2885 P3_U2884 P3_U2883 
+ P3_U2882 P3_U2881 P3_U2880 P3_U2879 P3_U2878 P3_U2877 P3_U2876 P3_U2875 
+ P3_U2874 P3_U2873 P3_U2872 P3_U2871 P3_U2870 P3_U2869 P3_U2868 P3_U3284 
+ P3_U3285 P3_U3288 P3_U3289 P3_U3290 P3_U2867 P3_U2866 P3_U2865 P3_U2864 
+ P3_U2863 P3_U2862 P3_U2861 P3_U2860 P3_U2859 P3_U2858 P3_U2857 P3_U2856 
+ P3_U2855 P3_U2854 P3_U2853 P3_U2852 P3_U2851 P3_U2850 P3_U2849 P3_U2848 
+ P3_U2847 P3_U2846 P3_U2845 P3_U2844 P3_U2843 P3_U2842 P3_U2841 P3_U2840 
+ P3_U2839 P3_U2838 P3_U2837 P3_U2836 P3_U2835 P3_U2834 P3_U2833 P3_U2832 
+ P3_U2831 P3_U2830 P3_U2829 P3_U2828 P3_U2827 P3_U2826 P3_U2825 P3_U2824 
+ P3_U2823 P3_U2822 P3_U2821 P3_U2820 P3_U2819 P3_U2818 P3_U2817 P3_U2816 
+ P3_U2815 P3_U2814 P3_U2813 P3_U2812 P3_U2811 P3_U2810 P3_U2809 P3_U2808 
+ P3_U2807 P3_U2806 P3_U2805 P3_U2804 P3_U2803 P3_U2802 P3_U2801 P3_U2800 
+ P3_U2799 P3_U2798 P3_U2797 P3_U2796 P3_U2795 P3_U2794 P3_U2793 P3_U2792 
+ P3_U2791 P3_U2790 P3_U2789 P3_U2788 P3_U2787 P3_U2786 P3_U2785 P3_U2784 
+ P3_U2783 P3_U2782 P3_U2781 P3_U2780 P3_U2779 P3_U2778 P3_U2777 P3_U2776 
+ P3_U2775 P3_U2774 P3_U2773 P3_U2772 P3_U2771 P3_U2770 P3_U2769 P3_U2768 
+ P3_U2767 P3_U2766 P3_U2765 P3_U2764 P3_U2763 P3_U2762 P3_U2761 P3_U2760 
+ P3_U2759 P3_U2758 P3_U2757 P3_U2756 P3_U2755 P3_U2754 P3_U2753 P3_U2752 
+ P3_U2751 P3_U2750 P3_U2749 P3_U2748 P3_U2747 P3_U2746 P3_U2745 P3_U2744 
+ P3_U2743 P3_U2742 P3_U2741 P3_U2740 P3_U2739 P3_U2738 P3_U2737 P3_U2736 
+ P3_U2735 P3_U2734 P3_U2733 P3_U2732 P3_U2731 P3_U2730 P3_U2729 P3_U2728 
+ P3_U2727 P3_U2726 P3_U2725 P3_U2724 P3_U2723 P3_U2722 P3_U2721 P3_U2720 
+ P3_U2719 P3_U2718 P3_U2717 P3_U2716 P3_U2715 P3_U2714 P3_U2713 P3_U2712 
+ P3_U2711 P3_U2710 P3_U2709 P3_U2708 P3_U2707 P3_U2706 P3_U2705 P3_U2704 
+ P3_U2703 P3_U2702 P3_U2701 P3_U2700 P3_U2699 P3_U2698 P3_U2697 P3_U2696 
+ P3_U2695 P3_U2694 P3_U2693 P3_U2692 P3_U2691 P3_U2690 P3_U2689 P3_U2688 
+ P3_U2687 P3_U2686 P3_U2685 P3_U2684 P3_U2683 P3_U2682 P3_U2681 P3_U2680 
+ P3_U2679 P3_U2678 P3_U2677 P3_U2676 P3_U2675 P3_U2674 P3_U2673 P3_U2672 
+ P3_U2671 P3_U2670 P3_U2669 P3_U2668 P3_U2667 P3_U2666 P3_U2665 P3_U2664 
+ P3_U2663 P3_U2662 P3_U2661 P3_U2660 P3_U2659 P3_U2658 P3_U2657 P3_U2656 
+ P3_U2655 P3_U2654 P3_U2653 P3_U2652 P3_U2651 P3_U2650 P3_U2649 P3_U2648 
+ P3_U2647 P3_U2646 P3_U2645 P3_U2644 P3_U2643 P3_U2642 P3_U2641 P3_U2640 
+ P3_U2639 P3_U3292 P3_U2638 P3_U3293 P3_U3294 P3_U2637 P3_U3295 P3_U2636 
+ P3_U3296 P3_U2635 P3_U3297 P3_U2634 P3_U2633 P3_U3298 P3_U3299 P2_U3585 
+ P2_U3586 P2_U3587 P2_U3588 P2_U3241 P2_U3240 P2_U3239 P2_U3238 P2_U3237 
+ P2_U3236 P2_U3235 P2_U3234 P2_U3233 P2_U3232 P2_U3231 P2_U3230 P2_U3229 
+ P2_U3228 P2_U3227 P2_U3226 P2_U3225 P2_U3224 P2_U3223 P2_U3222 P2_U3221 
+ P2_U3220 P2_U3219 P2_U3218 P2_U3217 P2_U3216 P2_U3215 P2_U3214 P2_U3213 
+ P2_U3212 P2_U3211 P2_U3210 P2_U3209 P2_U3591 P2_U3592 P2_U3208 P2_U3207 
+ P2_U3206 P2_U3205 P2_U3204 P2_U3203 P2_U3202 P2_U3201 P2_U3200 P2_U3199 
+ P2_U3198 P2_U3197 P2_U3196 P2_U3195 P2_U3194 P2_U3193 P2_U3192 P2_U3191 
+ P2_U3190 P2_U3189 P2_U3188 P2_U3187 P2_U3186 P2_U3185 P2_U3184 P2_U3183 
+ P2_U3182 P2_U3181 P2_U3180 P2_U3179 P2_U3593 P2_U3178 P2_U3177 P2_U3176 
+ P2_U3175 P2_U3174 P2_U3173 P2_U3172 P2_U3171 P2_U3170 P2_U3169 P2_U3168 
+ P2_U3167 P2_U3166 P2_U3165 P2_U3164 P2_U3163 P2_U3162 P2_U3161 P2_U3160 
+ P2_U3159 P2_U3158 P2_U3157 P2_U3156 P2_U3155 P2_U3154 P2_U3153 P2_U3152 
+ P2_U3151 P2_U3150 P2_U3149 P2_U3148 P2_U3147 P2_U3146 P2_U3145 P2_U3144 
+ P2_U3143 P2_U3142 P2_U3141 P2_U3140 P2_U3139 P2_U3138 P2_U3137 P2_U3136 
+ P2_U3135 P2_U3134 P2_U3133 P2_U3132 P2_U3131 P2_U3130 P2_U3129 P2_U3128 
+ P2_U3127 P2_U3126 P2_U3125 P2_U3124 P2_U3123 P2_U3122 P2_U3121 P2_U3120 
+ P2_U3119 P2_U3118 P2_U3117 P2_U3116 P2_U3115 P2_U3114 P2_U3113 P2_U3112 
+ P2_U3111 P2_U3110 P2_U3109 P2_U3108 P2_U3107 P2_U3106 P2_U3105 P2_U3104 
+ P2_U3103 P2_U3102 P2_U3101 P2_U3100 P2_U3099 P2_U3098 P2_U3097 P2_U3096 
+ P2_U3095 P2_U3094 P2_U3093 P2_U3092 P2_U3091 P2_U3090 P2_U3089 P2_U3088 
+ P2_U3087 P2_U3086 P2_U3085 P2_U3084 P2_U3083 P2_U3082 P2_U3081 P2_U3080 
+ P2_U3079 P2_U3078 P2_U3077 P2_U3076 P2_U3075 P2_U3074 P2_U3073 P2_U3072 
+ P2_U3071 P2_U3070 P2_U3069 P2_U3068 P2_U3067 P2_U3066 P2_U3065 P2_U3064 
+ P2_U3063 P2_U3062 P2_U3061 P2_U3060 P2_U3059 P2_U3058 P2_U3057 P2_U3056 
+ P2_U3055 P2_U3054 P2_U3053 P2_U3052 P2_U3051 P2_U3050 P2_U3049 P2_U3048 
+ P2_U3595 P2_U3596 P2_U3599 P2_U3600 P2_U3601 P2_U3047 P2_U3602 P2_U3603 
+ P2_U3604 P2_U3605 P2_U3046 P2_U3045 P2_U3044 P2_U3043 P2_U3042 P2_U3041 
+ P2_U3040 P2_U3039 P2_U3038 P2_U3037 P2_U3036 P2_U3035 P2_U3034 P2_U3033 
+ P2_U3032 P2_U3031 P2_U3030 P2_U3029 P2_U3028 P2_U3027 P2_U3026 P2_U3025 
+ P2_U3024 P2_U3023 P2_U3022 P2_U3021 P2_U3020 P2_U3019 P2_U3018 P2_U3017 
+ P2_U3016 P2_U3015 P2_U3014 P2_U3013 P2_U3012 P2_U3011 P2_U3010 P2_U3009 
+ P2_U3008 P2_U3007 P2_U3006 P2_U3005 P2_U3004 P2_U3003 P2_U3002 P2_U3001 
+ P2_U3000 P2_U2999 P2_U2998 P2_U2997 P2_U2996 P2_U2995 P2_U2994 P2_U2993 
+ P2_U2992 P2_U2991 P2_U2990 P2_U2989 P2_U2988 P2_U2987 P2_U2986 P2_U2985 
+ P2_U2984 P2_U2983 P2_U2982 P2_U2981 P2_U2980 P2_U2979 P2_U2978 P2_U2977 
+ P2_U2976 P2_U2975 P2_U2974 P2_U2973 P2_U2972 P2_U2971 P2_U2970 P2_U2969 
+ P2_U2968 P2_U2967 P2_U2966 P2_U2965 P2_U2964 P2_U2963 P2_U2962 P2_U2961 
+ P2_U2960 P2_U2959 P2_U2958 P2_U2957 P2_U2956 P2_U2955 P2_U2954 P2_U2953 
+ P2_U2952 P2_U2951 P2_U2950 P2_U2949 P2_U2948 P2_U2947 P2_U2946 P2_U2945 
+ P2_U2944 P2_U2943 P2_U2942 P2_U2941 P2_U2940 P2_U2939 P2_U2938 P2_U2937 
+ P2_U2936 P2_U2935 P2_U2934 P2_U2933 P2_U2932 P2_U2931 P2_U2930 P2_U2929 
+ P2_U2928 P2_U2927 P2_U2926 P2_U2925 P2_U2924 P2_U2923 P2_U2922 P2_U2921 
+ P2_U2920 P2_U2919 P2_U2918 P2_U2917 P2_U2916 P2_U2915 P2_U2914 P2_U2913 
+ P2_U2912 P2_U2911 P2_U2910 P2_U2909 P2_U2908 P2_U2907 P2_U2906 P2_U2905 
+ P2_U2904 P2_U2903 P2_U2902 P2_U2901 P2_U2900 P2_U2899 P2_U2898 P2_U2897 
+ P2_U2896 P2_U2895 P2_U2894 P2_U2893 P2_U2892 P2_U2891 P2_U2890 P2_U2889 
+ P2_U2888 P2_U2887 P2_U2886 P2_U2885 P2_U2884 P2_U2883 P2_U2882 P2_U2881 
+ P2_U2880 P2_U2879 P2_U2878 P2_U2877 P2_U2876 P2_U2875 P2_U2874 P2_U2873 
+ P2_U2872 P2_U2871 P2_U2870 P2_U2869 P2_U2868 P2_U2867 P2_U2866 P2_U2865 
+ P2_U2864 P2_U2863 P2_U2862 P2_U2861 P2_U2860 P2_U2859 P2_U2858 P2_U2857 
+ P2_U2856 P2_U2855 P2_U2854 P2_U2853 P2_U2852 P2_U2851 P2_U2850 P2_U2849 
+ P2_U2848 P2_U2847 P2_U2846 P2_U2845 P2_U2844 P2_U2843 P2_U2842 P2_U2841 
+ P2_U2840 P2_U2839 P2_U2838 P2_U2837 P2_U2836 P2_U2835 P2_U2834 P2_U2833 
+ P2_U2832 P2_U2831 P2_U2830 P2_U2829 P2_U2828 P2_U2827 P2_U2826 P2_U2825 
+ P2_U2824 P2_U2823 P2_U2822 P2_U2821 P2_U2820 P2_U3608 P2_U2819 P2_U3609 
+ P2_U2818 P2_U3610 P2_U2817 P2_U3611 P2_U2816 P2_U2815 P2_U3612 P2_U2814 
+ P1_U3458 P1_U3459 P1_U3460 P1_U3461 P1_U3226 P1_U3225 P1_U3224 P1_U3223 
+ P1_U3222 P1_U3221 P1_U3220 P1_U3219 P1_U3218 P1_U3217 P1_U3216 P1_U3215 
+ P1_U3214 P1_U3213 P1_U3212 P1_U3211 P1_U3210 P1_U3209 P1_U3208 P1_U3207 
+ P1_U3206 P1_U3205 P1_U3204 P1_U3203 P1_U3202 P1_U3201 P1_U3200 P1_U3199 
+ P1_U3198 P1_U3197 P1_U3196 P1_U3195 P1_U3194 P1_U3464 P1_U3465 P1_U3193 
+ P1_U3192 P1_U3191 P1_U3190 P1_U3189 P1_U3188 P1_U3187 P1_U3186 P1_U3185 
+ P1_U3184 P1_U3183 P1_U3182 P1_U3181 P1_U3180 P1_U3179 P1_U3178 P1_U3177 
+ P1_U3176 P1_U3175 P1_U3174 P1_U3173 P1_U3172 P1_U3171 P1_U3170 P1_U3169 
+ P1_U3168 P1_U3167 P1_U3166 P1_U3165 P1_U3164 P1_U3466 P1_U3163 P1_U3162 
+ P1_U3161 P1_U3160 P1_U3159 P1_U3158 P1_U3157 P1_U3156 P1_U3155 P1_U3154 
+ P1_U3153 P1_U3152 P1_U3151 P1_U3150 P1_U3149 P1_U3148 P1_U3147 P1_U3146 
+ P1_U3145 P1_U3144 P1_U3143 P1_U3142 P1_U3141 P1_U3140 P1_U3139 P1_U3138 
+ P1_U3137 P1_U3136 P1_U3135 P1_U3134 P1_U3133 P1_U3132 P1_U3131 P1_U3130 
+ P1_U3129 P1_U3128 P1_U3127 P1_U3126 P1_U3125 P1_U3124 P1_U3123 P1_U3122 
+ P1_U3121 P1_U3120 P1_U3119 P1_U3118 P1_U3117 P1_U3116 P1_U3115 P1_U3114 
+ P1_U3113 P1_U3112 P1_U3111 P1_U3110 P1_U3109 P1_U3108 P1_U3107 P1_U3106 
+ P1_U3105 P1_U3104 P1_U3103 P1_U3102 P1_U3101 P1_U3100 P1_U3099 P1_U3098 
+ P1_U3097 P1_U3096 P1_U3095 P1_U3094 P1_U3093 P1_U3092 P1_U3091 P1_U3090 
+ P1_U3089 P1_U3088 P1_U3087 P1_U3086 P1_U3085 P1_U3084 P1_U3083 P1_U3082 
+ P1_U3081 P1_U3080 P1_U3079 P1_U3078 P1_U3077 P1_U3076 P1_U3075 P1_U3074 
+ P1_U3073 P1_U3072 P1_U3071 P1_U3070 P1_U3069 P1_U3068 P1_U3067 P1_U3066 
+ P1_U3065 P1_U3064 P1_U3063 P1_U3062 P1_U3061 P1_U3060 P1_U3059 P1_U3058 
+ P1_U3057 P1_U3056 P1_U3055 P1_U3054 P1_U3053 P1_U3052 P1_U3051 P1_U3050 
+ P1_U3049 P1_U3048 P1_U3047 P1_U3046 P1_U3045 P1_U3044 P1_U3043 P1_U3042 
+ P1_U3041 P1_U3040 P1_U3039 P1_U3038 P1_U3037 P1_U3036 P1_U3035 P1_U3034 
+ P1_U3033 P1_U3468 P1_U3469 P1_U3472 P1_U3473 P1_U3474 P1_U3032 P1_U3475 
+ P1_U3476 P1_U3477 P1_U3478 P1_U3031 P1_U3030 P1_U3029 P1_U3028 P1_U3027 
+ P1_U3026 P1_U3025 P1_U3024 P1_U3023 P1_U3022 P1_U3021 P1_U3020 P1_U3019 
+ P1_U3018 P1_U3017 P1_U3016 P1_U3015 P1_U3014 P1_U3013 P1_U3012 P1_U3011 
+ P1_U3010 P1_U3009 P1_U3008 P1_U3007 P1_U3006 P1_U3005 P1_U3004 P1_U3003 
+ P1_U3002 P1_U3001 P1_U3000 P1_U2999 P1_U2998 P1_U2997 P1_U2996 P1_U2995 
+ P1_U2994 P1_U2993 P1_U2992 P1_U2991 P1_U2990 P1_U2989 P1_U2988 P1_U2987 
+ P1_U2986 P1_U2985 P1_U2984 P1_U2983 P1_U2982 P1_U2981 P1_U2980 P1_U2979 
+ P1_U2978 P1_U2977 P1_U2976 P1_U2975 P1_U2974 P1_U2973 P1_U2972 P1_U2971 
+ P1_U2970 P1_U2969 P1_U2968 P1_U2967 P1_U2966 P1_U2965 P1_U2964 P1_U2963 
+ P1_U2962 P1_U2961 P1_U2960 P1_U2959 P1_U2958 P1_U2957 P1_U2956 P1_U2955 
+ P1_U2954 P1_U2953 P1_U2952 P1_U2951 P1_U2950 P1_U2949 P1_U2948 P1_U2947 
+ P1_U2946 P1_U2945 P1_U2944 P1_U2943 P1_U2942 P1_U2941 P1_U2940 P1_U2939 
+ P1_U2938 P1_U2937 P1_U2936 P1_U2935 P1_U2934 P1_U2933 P1_U2932 P1_U2931 
+ P1_U2930 P1_U2929 P1_U2928 P1_U2927 P1_U2926 P1_U2925 P1_U2924 P1_U2923 
+ P1_U2922 P1_U2921 P1_U2920 P1_U2919 P1_U2918 P1_U2917 P1_U2916 P1_U2915 
+ P1_U2914 P1_U2913 P1_U2912 P1_U2911 P1_U2910 P1_U2909 P1_U2908 P1_U2907 
+ P1_U2906 P1_U2905 P1_U2904 P1_U2903 P1_U2902 P1_U2901 P1_U2900 P1_U2899 
+ P1_U2898 P1_U2897 P1_U2896 P1_U2895 P1_U2894 P1_U2893 P1_U2892 P1_U2891 
+ P1_U2890 P1_U2889 P1_U2888 P1_U2887 P1_U2886 P1_U2885 P1_U2884 P1_U2883 
+ P1_U2882 P1_U2881 P1_U2880 P1_U2879 P1_U2878 P1_U2877 P1_U2876 P1_U2875 
+ P1_U2874 P1_U2873 P1_U2872 P1_U2871 P1_U2870 P1_U2869 P1_U2868 P1_U2867 
+ P1_U2866 P1_U2865 P1_U2864 P1_U2863 P1_U2862 P1_U2861 P1_U2860 P1_U2859 
+ P1_U2858 P1_U2857 P1_U2856 P1_U2855 P1_U2854 P1_U2853 P1_U2852 P1_U2851 
+ P1_U2850 P1_U2849 P1_U2848 P1_U2847 P1_U2846 P1_U2845 P1_U2844 P1_U2843 
+ P1_U2842 P1_U2841 P1_U2840 P1_U2839 P1_U2838 P1_U2837 P1_U2836 P1_U2835 
+ P1_U2834 P1_U2833 P1_U2832 P1_U2831 P1_U2830 P1_U2829 P1_U2828 P1_U2827 
+ P1_U2826 P1_U2825 P1_U2824 P1_U2823 P1_U2822 P1_U2821 P1_U2820 P1_U2819 
+ P1_U2818 P1_U2817 P1_U2816 P1_U2815 P1_U2814 P1_U2813 P1_U2812 P1_U2811 
+ P1_U2810 P1_U2809 P1_U2808 P1_U3481 P1_U2807 P1_U3482 P1_U3483 P1_U2806 
+ P1_U3484 P1_U2805 P1_U3485 P1_U2804 P1_U3486 P1_U2803 P1_U2802 P1_U3487 
+ P1_U2801 P3_DATAO_REG_31_ P3_DATAO_REG_30_ P3_DATAO_REG_29_ P3_DATAO_REG_28_ 
+ P3_DATAO_REG_27_ P3_DATAO_REG_26_ P3_DATAO_REG_25_ P3_DATAO_REG_24_ 
+ P3_DATAO_REG_23_ P3_DATAO_REG_22_ P3_DATAO_REG_21_ P3_DATAO_REG_20_ 
+ P3_DATAO_REG_19_ P3_DATAO_REG_18_ P3_DATAO_REG_17_ P3_DATAO_REG_16_ 
+ P3_DATAO_REG_15_ P3_DATAO_REG_14_ P3_DATAO_REG_13_ P3_DATAO_REG_12_ 
+ P3_DATAO_REG_11_ P3_DATAO_REG_10_ P3_DATAO_REG_9_ P3_DATAO_REG_8_ 
+ P3_DATAO_REG_7_ P3_DATAO_REG_6_ P3_DATAO_REG_5_ P3_DATAO_REG_4_ 
+ P3_DATAO_REG_3_ P3_DATAO_REG_2_ P3_DATAO_REG_1_ P3_DATAO_REG_0_ 
+ P1_ADDRESS_REG_29_ P1_ADDRESS_REG_28_ P1_ADDRESS_REG_27_ P1_ADDRESS_REG_26_ 
+ P1_ADDRESS_REG_25_ P1_ADDRESS_REG_24_ P1_ADDRESS_REG_23_ P1_ADDRESS_REG_22_ 
+ P1_ADDRESS_REG_21_ P1_ADDRESS_REG_20_ P1_ADDRESS_REG_19_ P1_ADDRESS_REG_18_ 
+ P1_ADDRESS_REG_17_ P1_ADDRESS_REG_16_ P1_ADDRESS_REG_15_ P1_ADDRESS_REG_14_ 
+ P1_ADDRESS_REG_13_ P1_ADDRESS_REG_12_ P1_ADDRESS_REG_11_ P1_ADDRESS_REG_10_ 
+ P1_ADDRESS_REG_9_ P1_ADDRESS_REG_8_ P1_ADDRESS_REG_7_ P1_ADDRESS_REG_6_ 
+ P1_ADDRESS_REG_5_ P1_ADDRESS_REG_4_ P1_ADDRESS_REG_3_ P1_ADDRESS_REG_2_ 
+ P1_ADDRESS_REG_1_ P1_ADDRESS_REG_0_ U355 U356 U357 U358 U359 U360 U361 U362 
+ U363 U364 U366 U367 U368 U369 U370 U371 U372 U373 U374 U375 U347 U348 U349 
+ U350 U351 U352 U353 U354 U365 U376 P3_W_R_N_REG P3_D_C_N_REG P3_M_IO_N_REG 
+ P1_ADS_N_REG P3_ADS_N_REG BUF1_REG_0_ BUF1_REG_1_ BUF1_REG_2_ BUF1_REG_3_ 
+ BUF1_REG_4_ BUF1_REG_5_ BUF1_REG_6_ BUF1_REG_7_ BUF1_REG_8_ BUF1_REG_9_ 
+ BUF1_REG_10_ BUF1_REG_11_ BUF1_REG_12_ BUF1_REG_13_ BUF1_REG_14_ BUF1_REG_15_ 
+ BUF1_REG_16_ BUF1_REG_17_ BUF1_REG_18_ BUF1_REG_19_ BUF1_REG_20_ BUF1_REG_21_ 
+ BUF1_REG_22_ BUF1_REG_23_ BUF1_REG_24_ BUF1_REG_25_ BUF1_REG_26_ BUF1_REG_27_ 
+ BUF1_REG_28_ BUF1_REG_29_ BUF1_REG_30_ BUF1_REG_31_ BUF2_REG_0_ BUF2_REG_1_ 
+ BUF2_REG_2_ BUF2_REG_3_ BUF2_REG_4_ BUF2_REG_5_ BUF2_REG_6_ BUF2_REG_7_ 
+ BUF2_REG_8_ BUF2_REG_9_ BUF2_REG_10_ BUF2_REG_11_ BUF2_REG_12_ BUF2_REG_13_ 
+ BUF2_REG_14_ BUF2_REG_15_ BUF2_REG_16_ BUF2_REG_17_ BUF2_REG_18_ BUF2_REG_19_ 
+ BUF2_REG_20_ BUF2_REG_21_ BUF2_REG_22_ BUF2_REG_23_ BUF2_REG_24_ BUF2_REG_25_ 
+ BUF2_REG_26_ BUF2_REG_27_ BUF2_REG_28_ BUF2_REG_29_ BUF2_REG_30_ BUF2_REG_31_ 
+ READY12_REG READY21_REG READY22_REG READY11_REG P3_BE_N_REG_3_ P3_BE_N_REG_2_ 
+ P3_BE_N_REG_1_ P3_BE_N_REG_0_ P3_ADDRESS_REG_29_ P3_ADDRESS_REG_28_ 
+ P3_ADDRESS_REG_27_ P3_ADDRESS_REG_26_ P3_ADDRESS_REG_25_ P3_ADDRESS_REG_24_ 
+ P3_ADDRESS_REG_23_ P3_ADDRESS_REG_22_ P3_ADDRESS_REG_21_ P3_ADDRESS_REG_20_ 
+ P3_ADDRESS_REG_19_ P3_ADDRESS_REG_18_ P3_ADDRESS_REG_17_ P3_ADDRESS_REG_16_ 
+ P3_ADDRESS_REG_15_ P3_ADDRESS_REG_14_ P3_ADDRESS_REG_13_ P3_ADDRESS_REG_12_ 
+ P3_ADDRESS_REG_11_ P3_ADDRESS_REG_10_ P3_ADDRESS_REG_9_ P3_ADDRESS_REG_8_ 
+ P3_ADDRESS_REG_7_ P3_ADDRESS_REG_6_ P3_ADDRESS_REG_5_ P3_ADDRESS_REG_4_ 
+ P3_ADDRESS_REG_3_ P3_ADDRESS_REG_2_ P3_ADDRESS_REG_1_ P3_ADDRESS_REG_0_ 
+ P3_STATE_REG_2_ P3_STATE_REG_1_ P3_STATE_REG_0_ P3_DATAWIDTH_REG_0_ 
+ P3_DATAWIDTH_REG_1_ P3_DATAWIDTH_REG_2_ P3_DATAWIDTH_REG_3_ 
+ P3_DATAWIDTH_REG_4_ P3_DATAWIDTH_REG_5_ P3_DATAWIDTH_REG_6_ 
+ P3_DATAWIDTH_REG_7_ P3_DATAWIDTH_REG_8_ P3_DATAWIDTH_REG_9_ 
+ P3_DATAWIDTH_REG_10_ P3_DATAWIDTH_REG_11_ P3_DATAWIDTH_REG_12_ 
+ P3_DATAWIDTH_REG_13_ P3_DATAWIDTH_REG_14_ P3_DATAWIDTH_REG_15_ 
+ P3_DATAWIDTH_REG_16_ P3_DATAWIDTH_REG_17_ P3_DATAWIDTH_REG_18_ 
+ P3_DATAWIDTH_REG_19_ P3_DATAWIDTH_REG_20_ P3_DATAWIDTH_REG_21_ 
+ P3_DATAWIDTH_REG_22_ P3_DATAWIDTH_REG_23_ P3_DATAWIDTH_REG_24_ 
+ P3_DATAWIDTH_REG_25_ P3_DATAWIDTH_REG_26_ P3_DATAWIDTH_REG_27_ 
+ P3_DATAWIDTH_REG_28_ P3_DATAWIDTH_REG_29_ P3_DATAWIDTH_REG_30_ 
+ P3_DATAWIDTH_REG_31_ P3_STATE2_REG_3_ P3_STATE2_REG_2_ P3_STATE2_REG_1_ 
+ P3_STATE2_REG_0_ P3_INSTQUEUE_REG_15__7_ P3_INSTQUEUE_REG_15__6_ 
+ P3_INSTQUEUE_REG_15__5_ P3_INSTQUEUE_REG_15__4_ P3_INSTQUEUE_REG_15__3_ 
+ P3_INSTQUEUE_REG_15__2_ P3_INSTQUEUE_REG_15__1_ P3_INSTQUEUE_REG_15__0_ 
+ P3_INSTQUEUE_REG_14__7_ P3_INSTQUEUE_REG_14__6_ P3_INSTQUEUE_REG_14__5_ 
+ P3_INSTQUEUE_REG_14__4_ P3_INSTQUEUE_REG_14__3_ P3_INSTQUEUE_REG_14__2_ 
+ P3_INSTQUEUE_REG_14__1_ P3_INSTQUEUE_REG_14__0_ P3_INSTQUEUE_REG_13__7_ 
+ P3_INSTQUEUE_REG_13__6_ P3_INSTQUEUE_REG_13__5_ P3_INSTQUEUE_REG_13__4_ 
+ P3_INSTQUEUE_REG_13__3_ P3_INSTQUEUE_REG_13__2_ P3_INSTQUEUE_REG_13__1_ 
+ P3_INSTQUEUE_REG_13__0_ P3_INSTQUEUE_REG_12__7_ P3_INSTQUEUE_REG_12__6_ 
+ P3_INSTQUEUE_REG_12__5_ P3_INSTQUEUE_REG_12__4_ P3_INSTQUEUE_REG_12__3_ 
+ P3_INSTQUEUE_REG_12__2_ P3_INSTQUEUE_REG_12__1_ P3_INSTQUEUE_REG_12__0_ 
+ P3_INSTQUEUE_REG_11__7_ P3_INSTQUEUE_REG_11__6_ P3_INSTQUEUE_REG_11__5_ 
+ P3_INSTQUEUE_REG_11__4_ P3_INSTQUEUE_REG_11__3_ P3_INSTQUEUE_REG_11__2_ 
+ P3_INSTQUEUE_REG_11__1_ P3_INSTQUEUE_REG_11__0_ P3_INSTQUEUE_REG_10__7_ 
+ P3_INSTQUEUE_REG_10__6_ P3_INSTQUEUE_REG_10__5_ P3_INSTQUEUE_REG_10__4_ 
+ P3_INSTQUEUE_REG_10__3_ P3_INSTQUEUE_REG_10__2_ P3_INSTQUEUE_REG_10__1_ 
+ P3_INSTQUEUE_REG_10__0_ P3_INSTQUEUE_REG_9__7_ P3_INSTQUEUE_REG_9__6_ 
+ P3_INSTQUEUE_REG_9__5_ P3_INSTQUEUE_REG_9__4_ P3_INSTQUEUE_REG_9__3_ 
+ P3_INSTQUEUE_REG_9__2_ P3_INSTQUEUE_REG_9__1_ P3_INSTQUEUE_REG_9__0_ 
+ P3_INSTQUEUE_REG_8__7_ P3_INSTQUEUE_REG_8__6_ P3_INSTQUEUE_REG_8__5_ 
+ P3_INSTQUEUE_REG_8__4_ P3_INSTQUEUE_REG_8__3_ P3_INSTQUEUE_REG_8__2_ 
+ P3_INSTQUEUE_REG_8__1_ P3_INSTQUEUE_REG_8__0_ P3_INSTQUEUE_REG_7__7_ 
+ P3_INSTQUEUE_REG_7__6_ P3_INSTQUEUE_REG_7__5_ P3_INSTQUEUE_REG_7__4_ 
+ P3_INSTQUEUE_REG_7__3_ P3_INSTQUEUE_REG_7__2_ P3_INSTQUEUE_REG_7__1_ 
+ P3_INSTQUEUE_REG_7__0_ P3_INSTQUEUE_REG_6__7_ P3_INSTQUEUE_REG_6__6_ 
+ P3_INSTQUEUE_REG_6__5_ P3_INSTQUEUE_REG_6__4_ P3_INSTQUEUE_REG_6__3_ 
+ P3_INSTQUEUE_REG_6__2_ P3_INSTQUEUE_REG_6__1_ P3_INSTQUEUE_REG_6__0_ 
+ P3_INSTQUEUE_REG_5__7_ P3_INSTQUEUE_REG_5__6_ P3_INSTQUEUE_REG_5__5_ 
+ P3_INSTQUEUE_REG_5__4_ P3_INSTQUEUE_REG_5__3_ P3_INSTQUEUE_REG_5__2_ 
+ P3_INSTQUEUE_REG_5__1_ P3_INSTQUEUE_REG_5__0_ P3_INSTQUEUE_REG_4__7_ 
+ P3_INSTQUEUE_REG_4__6_ P3_INSTQUEUE_REG_4__5_ P3_INSTQUEUE_REG_4__4_ 
+ P3_INSTQUEUE_REG_4__3_ P3_INSTQUEUE_REG_4__2_ P3_INSTQUEUE_REG_4__1_ 
+ P3_INSTQUEUE_REG_4__0_ P3_INSTQUEUE_REG_3__7_ P3_INSTQUEUE_REG_3__6_ 
+ P3_INSTQUEUE_REG_3__5_ P3_INSTQUEUE_REG_3__4_ P3_INSTQUEUE_REG_3__3_ 
+ P3_INSTQUEUE_REG_3__2_ P3_INSTQUEUE_REG_3__1_ P3_INSTQUEUE_REG_3__0_ 
+ P3_INSTQUEUE_REG_2__7_ P3_INSTQUEUE_REG_2__6_ P3_INSTQUEUE_REG_2__5_ 
+ P3_INSTQUEUE_REG_2__4_ P3_INSTQUEUE_REG_2__3_ P3_INSTQUEUE_REG_2__2_ 
+ P3_INSTQUEUE_REG_2__1_ P3_INSTQUEUE_REG_2__0_ P3_INSTQUEUE_REG_1__7_ 
+ P3_INSTQUEUE_REG_1__6_ P3_INSTQUEUE_REG_1__5_ P3_INSTQUEUE_REG_1__4_ 
+ P3_INSTQUEUE_REG_1__3_ P3_INSTQUEUE_REG_1__2_ P3_INSTQUEUE_REG_1__1_ 
+ P3_INSTQUEUE_REG_1__0_ P3_INSTQUEUE_REG_0__7_ P3_INSTQUEUE_REG_0__6_ 
+ P3_INSTQUEUE_REG_0__5_ P3_INSTQUEUE_REG_0__4_ P3_INSTQUEUE_REG_0__3_ 
+ P3_INSTQUEUE_REG_0__2_ P3_INSTQUEUE_REG_0__1_ P3_INSTQUEUE_REG_0__0_ 
+ P3_INSTQUEUERD_ADDR_REG_4_ P3_INSTQUEUERD_ADDR_REG_3_ 
+ P3_INSTQUEUERD_ADDR_REG_2_ P3_INSTQUEUERD_ADDR_REG_1_ 
+ P3_INSTQUEUERD_ADDR_REG_0_ P3_INSTQUEUEWR_ADDR_REG_4_ 
+ P3_INSTQUEUEWR_ADDR_REG_3_ P3_INSTQUEUEWR_ADDR_REG_2_ 
+ P3_INSTQUEUEWR_ADDR_REG_1_ P3_INSTQUEUEWR_ADDR_REG_0_ 
+ P3_INSTADDRPOINTER_REG_0_ P3_INSTADDRPOINTER_REG_1_ P3_INSTADDRPOINTER_REG_2_ 
+ P3_INSTADDRPOINTER_REG_3_ P3_INSTADDRPOINTER_REG_4_ P3_INSTADDRPOINTER_REG_5_ 
+ P3_INSTADDRPOINTER_REG_6_ P3_INSTADDRPOINTER_REG_7_ P3_INSTADDRPOINTER_REG_8_ 
+ P3_INSTADDRPOINTER_REG_9_ P3_INSTADDRPOINTER_REG_10_ 
+ P3_INSTADDRPOINTER_REG_11_ P3_INSTADDRPOINTER_REG_12_ 
+ P3_INSTADDRPOINTER_REG_13_ P3_INSTADDRPOINTER_REG_14_ 
+ P3_INSTADDRPOINTER_REG_15_ P3_INSTADDRPOINTER_REG_16_ 
+ P3_INSTADDRPOINTER_REG_17_ P3_INSTADDRPOINTER_REG_18_ 
+ P3_INSTADDRPOINTER_REG_19_ P3_INSTADDRPOINTER_REG_20_ 
+ P3_INSTADDRPOINTER_REG_21_ P3_INSTADDRPOINTER_REG_22_ 
+ P3_INSTADDRPOINTER_REG_23_ P3_INSTADDRPOINTER_REG_24_ 
+ P3_INSTADDRPOINTER_REG_25_ P3_INSTADDRPOINTER_REG_26_ 
+ P3_INSTADDRPOINTER_REG_27_ P3_INSTADDRPOINTER_REG_28_ 
+ P3_INSTADDRPOINTER_REG_29_ P3_INSTADDRPOINTER_REG_30_ 
+ P3_INSTADDRPOINTER_REG_31_ P3_PHYADDRPOINTER_REG_0_ P3_PHYADDRPOINTER_REG_1_ 
+ P3_PHYADDRPOINTER_REG_2_ P3_PHYADDRPOINTER_REG_3_ P3_PHYADDRPOINTER_REG_4_ 
+ P3_PHYADDRPOINTER_REG_5_ P3_PHYADDRPOINTER_REG_6_ P3_PHYADDRPOINTER_REG_7_ 
+ P3_PHYADDRPOINTER_REG_8_ P3_PHYADDRPOINTER_REG_9_ P3_PHYADDRPOINTER_REG_10_ 
+ P3_PHYADDRPOINTER_REG_11_ P3_PHYADDRPOINTER_REG_12_ P3_PHYADDRPOINTER_REG_13_ 
+ P3_PHYADDRPOINTER_REG_14_ P3_PHYADDRPOINTER_REG_15_ P3_PHYADDRPOINTER_REG_16_ 
+ P3_PHYADDRPOINTER_REG_17_ P3_PHYADDRPOINTER_REG_18_ P3_PHYADDRPOINTER_REG_19_ 
+ P3_PHYADDRPOINTER_REG_20_ P3_PHYADDRPOINTER_REG_21_ P3_PHYADDRPOINTER_REG_22_ 
+ P3_PHYADDRPOINTER_REG_23_ P3_PHYADDRPOINTER_REG_24_ P3_PHYADDRPOINTER_REG_25_ 
+ P3_PHYADDRPOINTER_REG_26_ P3_PHYADDRPOINTER_REG_27_ P3_PHYADDRPOINTER_REG_28_ 
+ P3_PHYADDRPOINTER_REG_29_ P3_PHYADDRPOINTER_REG_30_ P3_PHYADDRPOINTER_REG_31_ 
+ P3_LWORD_REG_15_ P3_LWORD_REG_14_ P3_LWORD_REG_13_ P3_LWORD_REG_12_ 
+ P3_LWORD_REG_11_ P3_LWORD_REG_10_ P3_LWORD_REG_9_ P3_LWORD_REG_8_ 
+ P3_LWORD_REG_7_ P3_LWORD_REG_6_ P3_LWORD_REG_5_ P3_LWORD_REG_4_ 
+ P3_LWORD_REG_3_ P3_LWORD_REG_2_ P3_LWORD_REG_1_ P3_LWORD_REG_0_ 
+ P3_UWORD_REG_14_ P3_UWORD_REG_13_ P3_UWORD_REG_12_ P3_UWORD_REG_11_ 
+ P3_UWORD_REG_10_ P3_UWORD_REG_9_ P3_UWORD_REG_8_ P3_UWORD_REG_7_ 
+ P3_UWORD_REG_6_ P3_UWORD_REG_5_ P3_UWORD_REG_4_ P3_UWORD_REG_3_ 
+ P3_UWORD_REG_2_ P3_UWORD_REG_1_ P3_UWORD_REG_0_ P3_DATAO_REG_0__EXTRA 
+ P3_DATAO_REG_1__EXTRA P3_DATAO_REG_2__EXTRA P3_DATAO_REG_3__EXTRA 
+ P3_DATAO_REG_4__EXTRA P3_DATAO_REG_5__EXTRA P3_DATAO_REG_6__EXTRA 
+ P3_DATAO_REG_7__EXTRA P3_DATAO_REG_8__EXTRA P3_DATAO_REG_9__EXTRA 
+ P3_DATAO_REG_10__EXTRA P3_DATAO_REG_11__EXTRA P3_DATAO_REG_12__EXTRA 
+ P3_DATAO_REG_13__EXTRA P3_DATAO_REG_14__EXTRA P3_DATAO_REG_15__EXTRA 
+ P3_DATAO_REG_16__EXTRA P3_DATAO_REG_17__EXTRA P3_DATAO_REG_18__EXTRA 
+ P3_DATAO_REG_19__EXTRA P3_DATAO_REG_20__EXTRA P3_DATAO_REG_21__EXTRA 
+ P3_DATAO_REG_22__EXTRA P3_DATAO_REG_23__EXTRA P3_DATAO_REG_24__EXTRA 
+ P3_DATAO_REG_25__EXTRA P3_DATAO_REG_26__EXTRA P3_DATAO_REG_27__EXTRA 
+ P3_DATAO_REG_28__EXTRA P3_DATAO_REG_29__EXTRA P3_DATAO_REG_30__EXTRA 
+ P3_DATAO_REG_31__EXTRA P3_EAX_REG_0_ P3_EAX_REG_1_ P3_EAX_REG_2_ 
+ P3_EAX_REG_3_ P3_EAX_REG_4_ P3_EAX_REG_5_ P3_EAX_REG_6_ P3_EAX_REG_7_ 
+ P3_EAX_REG_8_ P3_EAX_REG_9_ P3_EAX_REG_10_ P3_EAX_REG_11_ P3_EAX_REG_12_ 
+ P3_EAX_REG_13_ P3_EAX_REG_14_ P3_EAX_REG_15_ P3_EAX_REG_16_ P3_EAX_REG_17_ 
+ P3_EAX_REG_18_ P3_EAX_REG_19_ P3_EAX_REG_20_ P3_EAX_REG_21_ P3_EAX_REG_22_ 
+ P3_EAX_REG_23_ P3_EAX_REG_24_ P3_EAX_REG_25_ P3_EAX_REG_26_ P3_EAX_REG_27_ 
+ P3_EAX_REG_28_ P3_EAX_REG_29_ P3_EAX_REG_30_ P3_EAX_REG_31_ P3_EBX_REG_0_ 
+ P3_EBX_REG_1_ P3_EBX_REG_2_ P3_EBX_REG_3_ P3_EBX_REG_4_ P3_EBX_REG_5_ 
+ P3_EBX_REG_6_ P3_EBX_REG_7_ P3_EBX_REG_8_ P3_EBX_REG_9_ P3_EBX_REG_10_ 
+ P3_EBX_REG_11_ P3_EBX_REG_12_ P3_EBX_REG_13_ P3_EBX_REG_14_ P3_EBX_REG_15_ 
+ P3_EBX_REG_16_ P3_EBX_REG_17_ P3_EBX_REG_18_ P3_EBX_REG_19_ P3_EBX_REG_20_ 
+ P3_EBX_REG_21_ P3_EBX_REG_22_ P3_EBX_REG_23_ P3_EBX_REG_24_ P3_EBX_REG_25_ 
+ P3_EBX_REG_26_ P3_EBX_REG_27_ P3_EBX_REG_28_ P3_EBX_REG_29_ P3_EBX_REG_30_ 
+ P3_EBX_REG_31_ P3_REIP_REG_0_ P3_REIP_REG_1_ P3_REIP_REG_2_ P3_REIP_REG_3_ 
+ P3_REIP_REG_4_ P3_REIP_REG_5_ P3_REIP_REG_6_ P3_REIP_REG_7_ P3_REIP_REG_8_ 
+ P3_REIP_REG_9_ P3_REIP_REG_10_ P3_REIP_REG_11_ P3_REIP_REG_12_ 
+ P3_REIP_REG_13_ P3_REIP_REG_14_ P3_REIP_REG_15_ P3_REIP_REG_16_ 
+ P3_REIP_REG_17_ P3_REIP_REG_18_ P3_REIP_REG_19_ P3_REIP_REG_20_ 
+ P3_REIP_REG_21_ P3_REIP_REG_22_ P3_REIP_REG_23_ P3_REIP_REG_24_ 
+ P3_REIP_REG_25_ P3_REIP_REG_26_ P3_REIP_REG_27_ P3_REIP_REG_28_ 
+ P3_REIP_REG_29_ P3_REIP_REG_30_ P3_REIP_REG_31_ P3_BYTEENABLE_REG_3_ 
+ P3_BYTEENABLE_REG_2_ P3_BYTEENABLE_REG_1_ P3_BYTEENABLE_REG_0_ 
+ P3_W_R_N_REG_EXTRA P3_FLUSH_REG P3_MORE_REG P3_STATEBS16_REG 
+ P3_REQUESTPENDING_REG P3_D_C_N_REG_EXTRA P3_M_IO_N_REG_EXTRA P3_CODEFETCH_REG 
+ P3_ADS_N_REG_EXTRA P3_READREQUEST_REG P3_MEMORYFETCH_REG P2_BE_N_REG_3_ 
+ P2_BE_N_REG_2_ P2_BE_N_REG_1_ P2_BE_N_REG_0_ P2_ADDRESS_REG_29_ 
+ P2_ADDRESS_REG_28_ P2_ADDRESS_REG_27_ P2_ADDRESS_REG_26_ P2_ADDRESS_REG_25_ 
+ P2_ADDRESS_REG_24_ P2_ADDRESS_REG_23_ P2_ADDRESS_REG_22_ P2_ADDRESS_REG_21_ 
+ P2_ADDRESS_REG_20_ P2_ADDRESS_REG_19_ P2_ADDRESS_REG_18_ P2_ADDRESS_REG_17_ 
+ P2_ADDRESS_REG_16_ P2_ADDRESS_REG_15_ P2_ADDRESS_REG_14_ P2_ADDRESS_REG_13_ 
+ P2_ADDRESS_REG_12_ P2_ADDRESS_REG_11_ P2_ADDRESS_REG_10_ P2_ADDRESS_REG_9_ 
+ P2_ADDRESS_REG_8_ P2_ADDRESS_REG_7_ P2_ADDRESS_REG_6_ P2_ADDRESS_REG_5_ 
+ P2_ADDRESS_REG_4_ P2_ADDRESS_REG_3_ P2_ADDRESS_REG_2_ P2_ADDRESS_REG_1_ 
+ P2_ADDRESS_REG_0_ P2_STATE_REG_2_ P2_STATE_REG_1_ P2_STATE_REG_0_ 
+ P2_DATAWIDTH_REG_0_ P2_DATAWIDTH_REG_1_ P2_DATAWIDTH_REG_2_ 
+ P2_DATAWIDTH_REG_3_ P2_DATAWIDTH_REG_4_ P2_DATAWIDTH_REG_5_ 
+ P2_DATAWIDTH_REG_6_ P2_DATAWIDTH_REG_7_ P2_DATAWIDTH_REG_8_ 
+ P2_DATAWIDTH_REG_9_ P2_DATAWIDTH_REG_10_ P2_DATAWIDTH_REG_11_ 
+ P2_DATAWIDTH_REG_12_ P2_DATAWIDTH_REG_13_ P2_DATAWIDTH_REG_14_ 
+ P2_DATAWIDTH_REG_15_ P2_DATAWIDTH_REG_16_ P2_DATAWIDTH_REG_17_ 
+ P2_DATAWIDTH_REG_18_ P2_DATAWIDTH_REG_19_ P2_DATAWIDTH_REG_20_ 
+ P2_DATAWIDTH_REG_21_ P2_DATAWIDTH_REG_22_ P2_DATAWIDTH_REG_23_ 
+ P2_DATAWIDTH_REG_24_ P2_DATAWIDTH_REG_25_ P2_DATAWIDTH_REG_26_ 
+ P2_DATAWIDTH_REG_27_ P2_DATAWIDTH_REG_28_ P2_DATAWIDTH_REG_29_ 
+ P2_DATAWIDTH_REG_30_ P2_DATAWIDTH_REG_31_ P2_STATE2_REG_3_ P2_STATE2_REG_2_ 
+ P2_STATE2_REG_1_ P2_STATE2_REG_0_ P2_INSTQUEUE_REG_15__7_ 
+ P2_INSTQUEUE_REG_15__6_ P2_INSTQUEUE_REG_15__5_ P2_INSTQUEUE_REG_15__4_ 
+ P2_INSTQUEUE_REG_15__3_ P2_INSTQUEUE_REG_15__2_ P2_INSTQUEUE_REG_15__1_ 
+ P2_INSTQUEUE_REG_15__0_ P2_INSTQUEUE_REG_14__7_ P2_INSTQUEUE_REG_14__6_ 
+ P2_INSTQUEUE_REG_14__5_ P2_INSTQUEUE_REG_14__4_ P2_INSTQUEUE_REG_14__3_ 
+ P2_INSTQUEUE_REG_14__2_ P2_INSTQUEUE_REG_14__1_ P2_INSTQUEUE_REG_14__0_ 
+ P2_INSTQUEUE_REG_13__7_ P2_INSTQUEUE_REG_13__6_ P2_INSTQUEUE_REG_13__5_ 
+ P2_INSTQUEUE_REG_13__4_ P2_INSTQUEUE_REG_13__3_ P2_INSTQUEUE_REG_13__2_ 
+ P2_INSTQUEUE_REG_13__1_ P2_INSTQUEUE_REG_13__0_ P2_INSTQUEUE_REG_12__7_ 
+ P2_INSTQUEUE_REG_12__6_ P2_INSTQUEUE_REG_12__5_ P2_INSTQUEUE_REG_12__4_ 
+ P2_INSTQUEUE_REG_12__3_ P2_INSTQUEUE_REG_12__2_ P2_INSTQUEUE_REG_12__1_ 
+ P2_INSTQUEUE_REG_12__0_ P2_INSTQUEUE_REG_11__7_ P2_INSTQUEUE_REG_11__6_ 
+ P2_INSTQUEUE_REG_11__5_ P2_INSTQUEUE_REG_11__4_ P2_INSTQUEUE_REG_11__3_ 
+ P2_INSTQUEUE_REG_11__2_ P2_INSTQUEUE_REG_11__1_ P2_INSTQUEUE_REG_11__0_ 
+ P2_INSTQUEUE_REG_10__7_ P2_INSTQUEUE_REG_10__6_ P2_INSTQUEUE_REG_10__5_ 
+ P2_INSTQUEUE_REG_10__4_ P2_INSTQUEUE_REG_10__3_ P2_INSTQUEUE_REG_10__2_ 
+ P2_INSTQUEUE_REG_10__1_ P2_INSTQUEUE_REG_10__0_ P2_INSTQUEUE_REG_9__7_ 
+ P2_INSTQUEUE_REG_9__6_ P2_INSTQUEUE_REG_9__5_ P2_INSTQUEUE_REG_9__4_ 
+ P2_INSTQUEUE_REG_9__3_ P2_INSTQUEUE_REG_9__2_ P2_INSTQUEUE_REG_9__1_ 
+ P2_INSTQUEUE_REG_9__0_ P2_INSTQUEUE_REG_8__7_ P2_INSTQUEUE_REG_8__6_ 
+ P2_INSTQUEUE_REG_8__5_ P2_INSTQUEUE_REG_8__4_ P2_INSTQUEUE_REG_8__3_ 
+ P2_INSTQUEUE_REG_8__2_ P2_INSTQUEUE_REG_8__1_ P2_INSTQUEUE_REG_8__0_ 
+ P2_INSTQUEUE_REG_7__7_ P2_INSTQUEUE_REG_7__6_ P2_INSTQUEUE_REG_7__5_ 
+ P2_INSTQUEUE_REG_7__4_ P2_INSTQUEUE_REG_7__3_ P2_INSTQUEUE_REG_7__2_ 
+ P2_INSTQUEUE_REG_7__1_ P2_INSTQUEUE_REG_7__0_ P2_INSTQUEUE_REG_6__7_ 
+ P2_INSTQUEUE_REG_6__6_ P2_INSTQUEUE_REG_6__5_ P2_INSTQUEUE_REG_6__4_ 
+ P2_INSTQUEUE_REG_6__3_ P2_INSTQUEUE_REG_6__2_ P2_INSTQUEUE_REG_6__1_ 
+ P2_INSTQUEUE_REG_6__0_ P2_INSTQUEUE_REG_5__7_ P2_INSTQUEUE_REG_5__6_ 
+ P2_INSTQUEUE_REG_5__5_ P2_INSTQUEUE_REG_5__4_ P2_INSTQUEUE_REG_5__3_ 
+ P2_INSTQUEUE_REG_5__2_ P2_INSTQUEUE_REG_5__1_ P2_INSTQUEUE_REG_5__0_ 
+ P2_INSTQUEUE_REG_4__7_ P2_INSTQUEUE_REG_4__6_ P2_INSTQUEUE_REG_4__5_ 
+ P2_INSTQUEUE_REG_4__4_ P2_INSTQUEUE_REG_4__3_ P2_INSTQUEUE_REG_4__2_ 
+ P2_INSTQUEUE_REG_4__1_ P2_INSTQUEUE_REG_4__0_ P2_INSTQUEUE_REG_3__7_ 
+ P2_INSTQUEUE_REG_3__6_ P2_INSTQUEUE_REG_3__5_ P2_INSTQUEUE_REG_3__4_ 
+ P2_INSTQUEUE_REG_3__3_ P2_INSTQUEUE_REG_3__2_ P2_INSTQUEUE_REG_3__1_ 
+ P2_INSTQUEUE_REG_3__0_ P2_INSTQUEUE_REG_2__7_ P2_INSTQUEUE_REG_2__6_ 
+ P2_INSTQUEUE_REG_2__5_ P2_INSTQUEUE_REG_2__4_ P2_INSTQUEUE_REG_2__3_ 
+ P2_INSTQUEUE_REG_2__2_ P2_INSTQUEUE_REG_2__1_ P2_INSTQUEUE_REG_2__0_ 
+ P2_INSTQUEUE_REG_1__7_ P2_INSTQUEUE_REG_1__6_ P2_INSTQUEUE_REG_1__5_ 
+ P2_INSTQUEUE_REG_1__4_ P2_INSTQUEUE_REG_1__3_ P2_INSTQUEUE_REG_1__2_ 
+ P2_INSTQUEUE_REG_1__1_ P2_INSTQUEUE_REG_1__0_ P2_INSTQUEUE_REG_0__7_ 
+ P2_INSTQUEUE_REG_0__6_ P2_INSTQUEUE_REG_0__5_ P2_INSTQUEUE_REG_0__4_ 
+ P2_INSTQUEUE_REG_0__3_ P2_INSTQUEUE_REG_0__2_ P2_INSTQUEUE_REG_0__1_ 
+ P2_INSTQUEUE_REG_0__0_ P2_INSTQUEUERD_ADDR_REG_4_ P2_INSTQUEUERD_ADDR_REG_3_ 
+ P2_INSTQUEUERD_ADDR_REG_2_ P2_INSTQUEUERD_ADDR_REG_1_ 
+ P2_INSTQUEUERD_ADDR_REG_0_ P2_INSTQUEUEWR_ADDR_REG_4_ 
+ P2_INSTQUEUEWR_ADDR_REG_3_ P2_INSTQUEUEWR_ADDR_REG_2_ 
+ P2_INSTQUEUEWR_ADDR_REG_1_ P2_INSTQUEUEWR_ADDR_REG_0_ 
+ P2_INSTADDRPOINTER_REG_0_ P2_INSTADDRPOINTER_REG_1_ P2_INSTADDRPOINTER_REG_2_ 