$ Spice netlist generated by v2lvs
$ v2013.3_28.19    Tue Sep 3 16:44:15 PDT 2013

.SUBCKT b21_ras P1_U3353 P1_U3352 P1_U3351 P1_U3350 P1_U3349 P1_U3348 P1_U3347 
+ P1_U3346 P1_U3345 P1_U3344 P1_U3343 P1_U3342 P1_U3341 P1_U3340 P1_U3339 
+ P1_U3338 P1_U3337 P1_U3336 P1_U3335 P1_U3334 P1_U3333 P1_U3332 P1_U3331 
+ P1_U3330 P1_U3329 P1_U3328 P1_U3327 P1_U3326 P1_U3325 P1_U3324 P1_U3323 
+ P1_U3322 P1_U3440 P1_U3441 P1_U3321 P1_U3320 P1_U3319 P1_U3318 P1_U3317 
+ P1_U3316 P1_U3315 P1_U3314 P1_U3313 P1_U3312 P1_U3311 P1_U3310 P1_U3309 
+ P1_U3308 P1_U3307 P1_U3306 P1_U3305 P1_U3304 P1_U3303 P1_U3302 P1_U3301 
+ P1_U3300 P1_U3299 P1_U3298 P1_U3297 P1_U3296 P1_U3295 P1_U3294 P1_U3293 
+ P1_U3292 P1_U3454 P1_U3457 P1_U3460 P1_U3463 P1_U3466 P1_U3469 P1_U3472 
+ P1_U3475 P1_U3478 P1_U3481 P1_U3484 P1_U3487 P1_U3490 P1_U3493 P1_U3496 
+ P1_U3499 P1_U3502 P1_U3505 P1_U3508 P1_U3510 P1_U3511 P1_U3512 P1_U3513 
+ P1_U3514 P1_U3515 P1_U3516 P1_U3517 P1_U3518 P1_U3519 P1_U3520 P1_U3521 
+ P1_U3522 P1_U3523 P1_U3524 P1_U3525 P1_U3526 P1_U3527 P1_U3528 P1_U3529 
+ P1_U3530 P1_U3531 P1_U3532 P1_U3533 P1_U3534 P1_U3535 P1_U3536 P1_U3537 
+ P1_U3538 P1_U3539 P1_U3540 P1_U3541 P1_U3542 P1_U3543 P1_U3544 P1_U3545 
+ P1_U3546 P1_U3547 P1_U3548 P1_U3549 P1_U3550 P1_U3551 P1_U3552 P1_U3553 
+ P1_U3554 P1_U3291 P1_U3290 P1_U3289 P1_U3288 P1_U3287 P1_U3286 P1_U3285 
+ P1_U3284 P1_U3283 P1_U3282 P1_U3281 P1_U3280 P1_U3279 P1_U3278 P1_U3277 
+ P1_U3276 P1_U3275 P1_U3274 P1_U3273 P1_U3272 P1_U3271 P1_U3270 P1_U3269 
+ P1_U3268 P1_U3267 P1_U3266 P1_U3265 P1_U3264 P1_U3263 P1_U3355 P1_U3262 
+ P1_U3261 P1_U3260 P1_U3259 P1_U3258 P1_U3257 P1_U3256 P1_U3255 P1_U3254 
+ P1_U3253 P1_U3252 P1_U3251 P1_U3250 P1_U3249 P1_U3248 P1_U3247 P1_U3246 
+ P1_U3245 P1_U3244 P1_U3243 P1_U3242 P1_U3241 P1_U3555 P1_U3556 P1_U3557 
+ P1_U3558 P1_U3559 P1_U3560 P1_U3561 P1_U3562 P1_U3563 P1_U3564 P1_U3565 
+ P1_U3566 P1_U3567 P1_U3568 P1_U3569 P1_U3570 P1_U3571 P1_U3572 P1_U3573 
+ P1_U3574 P1_U3575 P1_U3576 P1_U3577 P1_U3578 P1_U3579 P1_U3580 P1_U3581 
+ P1_U3582 P1_U3583 P1_U3584 P1_U3585 P1_U3586 P1_U3240 P1_U3239 P1_U3238 
+ P1_U3237 P1_U3236 P1_U3235 P1_U3234 P1_U3233 P1_U3232 P1_U3231 P1_U3230 
+ P1_U3229 P1_U3228 P1_U3227 P1_U3226 P1_U3225 P1_U3224 P1_U3223 P1_U3222 
+ P1_U3221 P1_U3220 P1_U3219 P1_U3218 P1_U3217 P1_U3216 P1_U3215 P1_U3214 
+ P1_U3213 P1_U3212 P1_U3211 P1_U3084 P1_U3083 P1_U4006 P2_U3358 P2_U3357 
+ P2_U3356 P2_U3355 P2_U3354 P2_U3353 P2_U3352 P2_U3351 P2_U3350 P2_U3349 
+ P2_U3348 P2_U3347 P2_U3346 P2_U3345 P2_U3344 P2_U3343 P2_U3342 P2_U3341 
+ P2_U3340 P2_U3339 P2_U3338 P2_U3337 P2_U3336 P2_U3335 P2_U3334 P2_U3333 
+ P2_U3332 P2_U3331 P2_U3330 P2_U3329 P2_U3328 P2_U3327 P2_U3437 P2_U3438 
+ P2_U3326 P2_U3325 P2_U3324 P2_U3323 P2_U3322 P2_U3321 P2_U3320 P2_U3319 
+ P2_U3318 P2_U3317 P2_U3316 P2_U3315 P2_U3314 P2_U3313 P2_U3312 P2_U3311 
+ P2_U3310 P2_U3309 P2_U3308 P2_U3307 P2_U3306 P2_U3305 P2_U3304 P2_U3303 
+ P2_U3302 P2_U3301 P2_U3300 P2_U3299 P2_U3298 P2_U3297 P2_U3451 P2_U3454 
+ P2_U3457 P2_U3460 P2_U3463 P2_U3466 P2_U3469 P2_U3472 P2_U3475 P2_U3478 
+ P2_U3481 P2_U3484 P2_U3487 P2_U3490 P2_U3493 P2_U3496 P2_U3499 P2_U3502 
+ P2_U3505 P2_U3507 P2_U3508 P2_U3509 P2_U3510 P2_U3511 P2_U3512 P2_U3513 
+ P2_U3514 P2_U3515 P2_U3516 P2_U3517 P2_U3518 P2_U3519 P2_U3520 P2_U3521 
+ P2_U3522 P2_U3523 P2_U3524 P2_U3525 P2_U3526 P2_U3527 P2_U3528 P2_U3529 
+ P2_U3530 P2_U3531 P2_U3532 P2_U3533 P2_U3534 P2_U3535 P2_U3536 P2_U3537 
+ P2_U3538 P2_U3539 P2_U3540 P2_U3541 P2_U3542 P2_U3543 P2_U3544 P2_U3545 
+ P2_U3546 P2_U3547 P2_U3548 P2_U3549 P2_U3550 P2_U3551 P2_U3296 P2_U3295 
+ P2_U3294 P2_U3293 P2_U3292 P2_U3291 P2_U3290 P2_U3289 P2_U3288 P2_U3287 
+ P2_U3286 P2_U3285 P2_U3284 P2_U3283 P2_U3282 P2_U3281 P2_U3280 P2_U3279 
+ P2_U3278 P2_U3277 P2_U3276 P2_U3275 P2_U3274 P2_U3273 P2_U3272 P2_U3271 
+ P2_U3270 P2_U3269 P2_U3268 P2_U3267 P2_U3266 P2_U3265 P2_U3264 P2_U3263 
+ P2_U3262 P2_U3261 P2_U3260 P2_U3259 P2_U3258 P2_U3257 P2_U3256 P2_U3255 
+ P2_U3254 P2_U3253 P2_U3252 P2_U3251 P2_U3250 P2_U3249 P2_U3248 P2_U3247 
+ P2_U3246 P2_U3245 P2_U3552 P2_U3553 P2_U3554 P2_U3555 P2_U3556 P2_U3557 
+ P2_U3558 P2_U3559 P2_U3560 P2_U3561 P2_U3562 P2_U3563 P2_U3564 P2_U3565 
+ P2_U3566 P2_U3567 P2_U3568 P2_U3569 P2_U3570 P2_U3571 P2_U3572 P2_U3573 
+ P2_U3574 P2_U3575 P2_U3576 P2_U3577 P2_U3578 P2_U3579 P2_U3580 P2_U3581 
+ P2_U3582 P2_U3583 P2_U3244 P2_U3243 P2_U3242 P2_U3241 P2_U3240 P2_U3239 
+ P2_U3238 P2_U3237 P2_U3236 P2_U3235 P2_U3234 P2_U3233 P2_U3232 P2_U3231 
+ P2_U3230 P2_U3229 P2_U3228 P2_U3227 P2_U3226 P2_U3225 P2_U3224 P2_U3223 
+ P2_U3222 P2_U3221 P2_U3220 P2_U3219 P2_U3218 P2_U3217 P2_U3216 P2_U3215 
+ P2_U3152 P2_U3151 P2_U3966 ADD_1071_U4 ADD_1071_U55 ADD_1071_U56 ADD_1071_U57 
+ ADD_1071_U58 ADD_1071_U59 ADD_1071_U60 ADD_1071_U61 ADD_1071_U62 ADD_1071_U63 
+ ADD_1071_U47 ADD_1071_U48 ADD_1071_U49 ADD_1071_U50 ADD_1071_U51 ADD_1071_U52 
+ ADD_1071_U53 ADD_1071_U54 ADD_1071_U5 ADD_1071_U46 U126 U123 P1_IR_REG_0_ 
+ P1_IR_REG_1_ P1_IR_REG_2_ P1_IR_REG_3_ P1_IR_REG_4_ P1_IR_REG_5_ P1_IR_REG_6_ 
+ P1_IR_REG_7_ P1_IR_REG_8_ P1_IR_REG_9_ P1_IR_REG_10_ P1_IR_REG_11_ 
+ P1_IR_REG_12_ P1_IR_REG_13_ P1_IR_REG_14_ P1_IR_REG_15_ P1_IR_REG_16_ 
+ P1_IR_REG_17_ P1_IR_REG_18_ P1_IR_REG_19_ P1_IR_REG_20_ P1_IR_REG_21_ 
+ P1_IR_REG_22_ P1_IR_REG_23_ P1_IR_REG_24_ P1_IR_REG_25_ P1_IR_REG_26_ 
+ P1_IR_REG_27_ P1_IR_REG_28_ P1_IR_REG_29_ P1_IR_REG_30_ P1_IR_REG_31_ 
+ P1_D_REG_0_ P1_D_REG_1_ P1_D_REG_2_ P1_D_REG_3_ P1_D_REG_4_ P1_D_REG_5_ 
+ P1_D_REG_6_ P1_D_REG_7_ P1_D_REG_8_ P1_D_REG_9_ P1_D_REG_10_ P1_D_REG_11_ 
+ P1_D_REG_12_ P1_D_REG_13_ P1_D_REG_14_ P1_D_REG_15_ P1_D_REG_16_ P1_D_REG_17_ 
+ P1_D_REG_18_ P1_D_REG_19_ P1_D_REG_20_ P1_D_REG_21_ P1_D_REG_22_ P1_D_REG_23_ 
+ P1_D_REG_24_ P1_D_REG_25_ P1_D_REG_26_ P1_D_REG_27_ P1_D_REG_28_ P1_D_REG_29_ 
+ P1_D_REG_30_ P1_D_REG_31_ P1_REG0_REG_0_ P1_REG0_REG_1_ P1_REG0_REG_2_ 
+ P1_REG0_REG_3_ P1_REG0_REG_4_ P1_REG0_REG_5_ P1_REG0_REG_6_ P1_REG0_REG_7_ 
+ P1_REG0_REG_8_ P1_REG0_REG_9_ P1_REG0_REG_10_ P1_REG0_REG_11_ P1_REG0_REG_12_ 
+ P1_REG0_REG_13_ P1_REG0_REG_14_ P1_REG0_REG_15_ P1_REG0_REG_16_ 
+ P1_REG0_REG_17_ P1_REG0_REG_18_ P1_REG0_REG_19_ P1_REG0_REG_20_ 
+ P1_REG0_REG_21_ P1_REG0_REG_22_ P1_REG0_REG_23_ P1_REG0_REG_24_ 
+ P1_REG0_REG_25_ P1_REG0_REG_26_ P1_REG0_REG_27_ P1_REG0_REG_28_ 
+ P1_REG0_REG_29_ P1_REG0_REG_30_ P1_REG0_REG_31_ P1_REG1_REG_0_ P1_REG1_REG_1_ 
+ P1_REG1_REG_2_ P1_REG1_REG_3_ P1_REG1_REG_4_ P1_REG1_REG_5_ P1_REG1_REG_6_ 
+ P1_REG1_REG_7_ P1_REG1_REG_8_ P1_REG1_REG_9_ P1_REG1_REG_10_ P1_REG1_REG_11_ 
+ P1_REG1_REG_12_ P1_REG1_REG_13_ P1_REG1_REG_14_ P1_REG1_REG_15_ 
+ P1_REG1_REG_16_ P1_REG1_REG_17_ P1_REG1_REG_18_ P1_REG1_REG_19_ 
+ P1_REG1_REG_20_ P1_REG1_REG_21_ P1_REG1_REG_22_ P1_REG1_REG_23_ 
+ P1_REG1_REG_24_ P1_REG1_REG_25_ P1_REG1_REG_26_ P1_REG1_REG_27_ 
+ P1_REG1_REG_28_ P1_REG1_REG_29_ P1_REG1_REG_30_ P1_REG1_REG_31_ 
+ P1_REG2_REG_0_ P1_REG2_REG_1_ P1_REG2_REG_2_ P1_REG2_REG_3_ P1_REG2_REG_4_ 
+ P1_REG2_REG_5_ P1_REG2_REG_6_ P1_REG2_REG_7_ P1_REG2_REG_8_ P1_REG2_REG_9_ 
+ P1_REG2_REG_10_ P1_REG2_REG_11_ P1_REG2_REG_12_ P1_REG2_REG_13_ 
+ P1_REG2_REG_14_ P1_REG2_REG_15_ P1_REG2_REG_16_ P1_REG2_REG_17_ 
+ P1_REG2_REG_18_ P1_REG2_REG_19_ P1_REG2_REG_20_ P1_REG2_REG_21_ 
+ P1_REG2_REG_22_ P1_REG2_REG_23_ P1_REG2_REG_24_ P1_REG2_REG_25_ 
+ P1_REG2_REG_26_ P1_REG2_REG_27_ P1_REG2_REG_28_ P1_REG2_REG_29_ 
+ P1_REG2_REG_30_ P1_REG2_REG_31_ P1_ADDR_REG_19_ P1_ADDR_REG_18_ 
+ P1_ADDR_REG_17_ P1_ADDR_REG_16_ P1_ADDR_REG_15_ P1_ADDR_REG_14_ 
+ P1_ADDR_REG_13_ P1_ADDR_REG_12_ P1_ADDR_REG_11_ P1_ADDR_REG_10_ 
+ P1_ADDR_REG_9_ P1_ADDR_REG_8_ P1_ADDR_REG_7_ P1_ADDR_REG_6_ P1_ADDR_REG_5_ 
+ P1_ADDR_REG_4_ P1_ADDR_REG_3_ P1_ADDR_REG_2_ P1_ADDR_REG_1_ P1_ADDR_REG_0_ 
+ P1_DATAO_REG_0_ P1_DATAO_REG_1_ P1_DATAO_REG_2_ P1_DATAO_REG_3_ 
+ P1_DATAO_REG_4_ P1_DATAO_REG_5_ P1_DATAO_REG_6_ P1_DATAO_REG_7_ 
+ P1_DATAO_REG_8_ P1_DATAO_REG_9_ P1_DATAO_REG_10_ P1_DATAO_REG_11_ 
+ P1_DATAO_REG_12_ P1_DATAO_REG_13_ P1_DATAO_REG_14_ P1_DATAO_REG_15_ 
+ P1_DATAO_REG_16_ P1_DATAO_REG_17_ P1_DATAO_REG_18_ P1_DATAO_REG_19_ 
+ P1_DATAO_REG_20_ P1_DATAO_REG_21_ P1_DATAO_REG_22_ P1_DATAO_REG_23_ 
+ P1_DATAO_REG_24_ P1_DATAO_REG_25_ P1_DATAO_REG_26_ P1_DATAO_REG_27_ 
+ P1_DATAO_REG_28_ P1_DATAO_REG_29_ P1_DATAO_REG_30_ P1_DATAO_REG_31_ P1_B_REG 
+ P1_REG3_REG_15_ P1_REG3_REG_26_ P1_REG3_REG_6_ P1_REG3_REG_18_ P1_REG3_REG_2_ 
+ P1_REG3_REG_11_ P1_REG3_REG_22_ P1_REG3_REG_13_ P1_REG3_REG_20_ 
+ P1_REG3_REG_0_ P1_REG3_REG_9_ P1_REG3_REG_4_ P1_REG3_REG_24_ P1_REG3_REG_17_ 
+ P1_REG3_REG_5_ P1_REG3_REG_16_ P1_REG3_REG_25_ P1_REG3_REG_12_ 
+ P1_REG3_REG_21_ P1_REG3_REG_1_ P1_REG3_REG_8_ P1_REG3_REG_28_ P1_REG3_REG_19_ 
+ P1_REG3_REG_3_ P1_REG3_REG_10_ P1_REG3_REG_23_ P1_REG3_REG_14_ 
+ P1_REG3_REG_27_ P1_REG3_REG_7_ P1_STATE_REG P1_RD_REG P1_WR_REG P2_IR_REG_0_ 
+ P2_IR_REG_1_ P2_IR_REG_2_ P2_IR_REG_3_ P2_IR_REG_4_ P2_IR_REG_5_ P2_IR_REG_6_ 
+ P2_IR_REG_7_ P2_IR_REG_8_ P2_IR_REG_9_ P2_IR_REG_10_ P2_IR_REG_11_ 
+ P2_IR_REG_12_ P2_IR_REG_13_ P2_IR_REG_14_ P2_IR_REG_15_ P2_IR_REG_16_ 
+ P2_IR_REG_17_ P2_IR_REG_18_ P2_IR_REG_19_ P2_IR_REG_20_ P2_IR_REG_21_ 
+ P2_IR_REG_22_ P2_IR_REG_23_ P2_IR_REG_24_ P2_IR_REG_25_ P2_IR_REG_26_ 
+ P2_IR_REG_27_ P2_IR_REG_28_ P2_IR_REG_29_ P2_IR_REG_30_ P2_IR_REG_31_ 
+ P2_D_REG_0_ P2_D_REG_1_ P2_D_REG_2_ P2_D_REG_3_ P2_D_REG_4_ P2_D_REG_5_ 
+ P2_D_REG_6_ P2_D_REG_7_ P2_D_REG_8_ P2_D_REG_9_ P2_D_REG_10_ P2_D_REG_11_ 
+ P2_D_REG_12_ P2_D_REG_13_ P2_D_REG_14_ P2_D_REG_15_ P2_D_REG_16_ P2_D_REG_17_ 
+ P2_D_REG_18_ P2_D_REG_19_ P2_D_REG_20_ P2_D_REG_21_ P2_D_REG_22_ P2_D_REG_23_ 
+ P2_D_REG_24_ P2_D_REG_25_ P2_D_REG_26_ P2_D_REG_27_ P2_D_REG_28_ P2_D_REG_29_ 
+ P2_D_REG_30_ P2_D_REG_31_ P2_REG0_REG_0_ P2_REG0_REG_1_ P2_REG0_REG_2_ 
+ P2_REG0_REG_3_ P2_REG0_REG_4_ P2_REG0_REG_5_ P2_REG0_REG_6_ P2_REG0_REG_7_ 
+ P2_REG0_REG_8_ P2_REG0_REG_9_ P2_REG0_REG_10_ P2_REG0_REG_11_ P2_REG0_REG_12_ 
+ P2_REG0_REG_13_ P2_REG0_REG_14_ P2_REG0_REG_15_ P2_REG0_REG_16_ 
+ P2_REG0_REG_17_ P2_REG0_REG_18_ P2_REG0_REG_19_ P2_REG0_REG_20_ 
+ P2_REG0_REG_21_ P2_REG0_REG_22_ P2_REG0_REG_23_ P2_REG0_REG_24_ 
+ P2_REG0_REG_25_ P2_REG0_REG_26_ P2_REG0_REG_27_ P2_REG0_REG_28_ 
+ P2_REG0_REG_29_ P2_REG0_REG_30_ P2_REG0_REG_31_ P2_REG1_REG_0_ P2_REG1_REG_1_ 
+ P2_REG1_REG_2_ P2_REG1_REG_3_ P2_REG1_REG_4_ P2_REG1_REG_5_ P2_REG1_REG_6_ 
+ P2_REG1_REG_7_ P2_REG1_REG_8_ P2_REG1_REG_9_ P2_REG1_REG_10_ P2_REG1_REG_11_ 
+ P2_REG1_REG_12_ P2_REG1_REG_13_ P2_REG1_REG_14_ P2_REG1_REG_15_ 
+ P2_REG1_REG_16_ P2_REG1_REG_17_ P2_REG1_REG_18_ P2_REG1_REG_19_ 
+ P2_REG1_REG_20_ P2_REG1_REG_21_ P2_REG1_REG_22_ P2_REG1_REG_23_ 
+ P2_REG1_REG_24_ P2_REG1_REG_25_ P2_REG1_REG_26_ P2_REG1_REG_27_ 
+ P2_REG1_REG_28_ P2_REG1_REG_29_ P2_REG1_REG_30_ P2_REG1_REG_31_ 
+ P2_REG2_REG_0_ P2_REG2_REG_1_ P2_REG2_REG_2_ P2_REG2_REG_3_ P2_REG2_REG_4_ 
+ P2_REG2_REG_5_ P2_REG2_REG_6_ P2_REG2_REG_7_ P2_REG2_REG_8_ P2_REG2_REG_9_ 
+ P2_REG2_REG_10_ P2_REG2_REG_11_ P2_REG2_REG_12_ P2_REG2_REG_13_ 
+ P2_REG2_REG_14_ P2_REG2_REG_15_ P2_REG2_REG_16_ P2_REG2_REG_17_ 
+ P2_REG2_REG_18_ P2_REG2_REG_19_ P2_REG2_REG_20_ P2_REG2_REG_21_ 
+ P2_REG2_REG_22_ P2_REG2_REG_23_ P2_REG2_REG_24_ P2_REG2_REG_25_ 
+ P2_REG2_REG_26_ P2_REG2_REG_27_ P2_REG2_REG_28_ P2_REG2_REG_29_ 
+ P2_REG2_REG_30_ P2_REG2_REG_31_ P2_ADDR_REG_19_ P2_ADDR_REG_18_ 
+ P2_ADDR_REG_17_ P2_ADDR_REG_16_ P2_ADDR_REG_15_ P2_ADDR_REG_14_ 
+ P2_ADDR_REG_13_ P2_ADDR_REG_12_ P2_ADDR_REG_11_ P2_ADDR_REG_10_ 
+ P2_ADDR_REG_9_ P2_ADDR_REG_8_ P2_ADDR_REG_7_ P2_ADDR_REG_6_ P2_ADDR_REG_5_ 
+ P2_ADDR_REG_4_ P2_ADDR_REG_3_ P2_ADDR_REG_2_ P2_ADDR_REG_1_ P2_ADDR_REG_0_ 
+ P2_DATAO_REG_0_ P2_DATAO_REG_1_ P2_DATAO_REG_2_ P2_DATAO_REG_3_ 
+ P2_DATAO_REG_4_ P2_DATAO_REG_5_ P2_DATAO_REG_6_ P2_DATAO_REG_7_ 
+ P2_DATAO_REG_8_ P2_DATAO_REG_9_ P2_DATAO_REG_10_ P2_DATAO_REG_11_ 
+ P2_DATAO_REG_12_ P2_DATAO_REG_13_ P2_DATAO_REG_14_ P2_DATAO_REG_15_ 
+ P2_DATAO_REG_16_ P2_DATAO_REG_17_ P2_DATAO_REG_18_ P2_DATAO_REG_19_ 
+ P2_DATAO_REG_20_ P2_DATAO_REG_21_ P2_DATAO_REG_22_ P2_DATAO_REG_23_ 
+ P2_DATAO_REG_24_ P2_DATAO_REG_25_ P2_DATAO_REG_26_ P2_DATAO_REG_27_ 
+ P2_DATAO_REG_28_ P2_DATAO_REG_29_ P2_DATAO_REG_30_ P2_DATAO_REG_31_ P2_B_REG 
+ P2_REG3_REG_15_ P2_REG3_REG_26_ P2_REG3_REG_6_ P2_REG3_REG_18_ P2_REG3_REG_2_ 
+ P2_REG3_REG_11_ P2_REG3_REG_22_ P2_REG3_REG_13_ P2_REG3_REG_20_ 
+ P2_REG3_REG_0_ P2_REG3_REG_9_ P2_REG3_REG_4_ P2_REG3_REG_24_ P2_REG3_REG_17_ 
+ P2_REG3_REG_5_ P2_REG3_REG_16_ P2_REG3_REG_25_ P2_REG3_REG_12_ 
+ P2_REG3_REG_21_ P2_REG3_REG_1_ P2_REG3_REG_8_ P2_REG3_REG_28_ P2_REG3_REG_19_ 
+ P2_REG3_REG_3_ P2_REG3_REG_10_ P2_REG3_REG_23_ P2_REG3_REG_14_ 
+ P2_REG3_REG_27_ P2_REG3_REG_7_ P2_STATE_REG P2_RD_REG P2_WR_REG SI_31_ SI_30_ 
+ SI_29_ SI_28_ SI_27_ SI_26_ SI_25_ SI_24_ SI_23_ SI_22_ SI_21_ SI_20_ SI_19_ 
+ SI_18_ SI_17_ SI_16_ SI_15_ SI_14_ SI_13_ SI_12_ SI_11_ SI_10_ SI_9_ SI_8_ 
+ SI_7_ SI_6_ SI_5_ SI_4_ SI_3_ SI_2_ SI_1_ SI_0_ 
XAND2_102 U123 U132 U131 and 
XAND2_105 U126 U134 U133 and 
XAND2_318 P1_U3014 P1_U3989 P1_U3444 and 
XAND2_319 P1_U3015 P1_U3450 P1_U3447 and 
XAND2_320 P1_U3016 P1_U3632 P1_U3627 and 
XAND2_321 P1_U3017 P1_U3445 P1_U3446 and 
XAND2_322 P1_U3018 P1_U5725 P1_U3445 and 
XAND2_323 P1_U3019 P1_U5722 P1_U3446 and 
XAND2_324 P1_U3020 P1_U5722 P1_U5725 and 
XAND2_325 P1_U3021 P1_U5400 P1_U3421 and 
XAND2_326 P1_U3022 P1_U3046 P1_STATE_REG and 
XAND2_327 P1_U3023 P1_U3049 P1_U5716 and 
XAND2_328 P1_U3024 P1_U3817 P1_U3423 and 
XAND2_329 P1_U3025 P1_U4020 P1_U5728 and 
XAND2_330 P1_U3026 P1_U3986 P1_U5716 and 
XAND2_331 P1_U3027 P1_U3880 P1_U4005 and 
XAND2_332 P1_U3028 P1_U3356 P1_STATE_REG and 
XAND2_333 P1_U3029 P1_U3997 P1_U4022 and 
XAND2_334 P1_U3030 P1_U4022 P1_U3422 and 
XAND2_335 P1_U3031 P1_U3990 P1_U4022 and 
XAND2_336 P1_U3032 P1_U3998 P1_U4022 and 
XAND2_337 P1_U3033 P1_U4020 P1_U3447 and 
XAND2_338 P1_U3034 P1_U4005 P1_U5728 and 
XAND2_339 P1_U3035 P1_U4022 P1_U3025 and 
XAND2_340 P1_U3036 P1_U4005 P1_U3447 and 
XAND2_341 P1_U3037 P1_U5734 P1_U4913 and 
XAND2_342 P1_U3038 P1_U3024 P1_U5734 and 
XAND2_343 P1_U3039 P1_U5728 P1_U4913 and 
XAND2_344 P1_U3040 P1_U3024 P1_U5728 and 
XAND2_345 P1_U3041 P1_U3015 P1_U4913 and 
XAND2_346 P1_U3042 P1_U3024 P1_U3015 and 
XAND2_347 P1_U3043 P1_U3022 P1_U3423 and 
XAND2_348 P1_U3044 P1_U5145 P1_STATE_REG and 
XAND2_349 P1_U3045 P1_U3022 P1_U5147 and 
XAND2_350 P1_U3046 P1_U5703 P1_U3421 and 
XAND2_351 P1_U3047 P1_U3633 P1_U3016 and 
XAND2_352 P1_U3048 P1_U5716 P1_U3443 and 
XAND2_353 P1_U3049 P1_U5710 P1_U5719 and 
XAND2_354 P1_U3050 P1_U3436 P1_U3438 and 
XAND2_513 P1_U3209 P1_U5399 P1_U3421 and 
XAND2_544 P1_U3240 P1_U5120 P1_U5682 and 
XAND2_596 P1_U3292 P1_D_REG_31_ P1_U3945 and 
XAND2_597 P1_U3293 P1_D_REG_30_ P1_U3945 and 
XAND2_598 P1_U3294 P1_D_REG_29_ P1_U3945 and 
XAND2_599 P1_U3295 P1_D_REG_28_ P1_U3945 and 
XAND2_600 P1_U3296 P1_D_REG_27_ P1_U3945 and 
XAND2_601 P1_U3297 P1_D_REG_26_ P1_U3945 and 
XAND2_602 P1_U3298 P1_D_REG_25_ P1_U3945 and 
XAND2_603 P1_U3299 P1_D_REG_24_ P1_U3945 and 
XAND2_604 P1_U3300 P1_D_REG_23_ P1_U3945 and 
XAND2_605 P1_U3301 P1_D_REG_22_ P1_U3945 and 
XAND2_606 P1_U3302 P1_D_REG_21_ P1_U3945 and 
XAND2_607 P1_U3303 P1_D_REG_20_ P1_U3945 and 
XAND2_608 P1_U3304 P1_D_REG_19_ P1_U3945 and 
XAND2_609 P1_U3305 P1_D_REG_18_ P1_U3945 and 
XAND2_610 P1_U3306 P1_D_REG_17_ P1_U3945 and 
XAND2_611 P1_U3307 P1_D_REG_16_ P1_U3945 and 
XAND2_612 P1_U3308 P1_D_REG_15_ P1_U3945 and 
XAND2_613 P1_U3309 P1_D_REG_14_ P1_U3945 and 
XAND2_614 P1_U3310 P1_D_REG_13_ P1_U3945 and 
XAND2_615 P1_U3311 P1_D_REG_12_ P1_U3945 and 
XAND2_616 P1_U3312 P1_D_REG_11_ P1_U3945 and 
XAND2_617 P1_U3313 P1_D_REG_10_ P1_U3945 and 
XAND2_618 P1_U3314 P1_D_REG_9_ P1_U3945 and 
XAND2_619 P1_U3315 P1_D_REG_8_ P1_U3945 and 
XAND2_620 P1_U3316 P1_D_REG_7_ P1_U3945 and 
XAND2_621 P1_U3317 P1_D_REG_6_ P1_U3945 and 
XAND2_622 P1_U3318 P1_D_REG_5_ P1_U3945 and 
XAND2_623 P1_U3319 P1_D_REG_4_ P1_U3945 and 
XAND2_624 P1_U3320 P1_D_REG_3_ P1_U3945 and 
XAND2_625 P1_U3321 P1_D_REG_2_ P1_U3945 and 
XAND2_658 P1_U3354 P1_U3443 P1_U3439 and 
XAND2_923 P1_U3619 P1_U4177 P1_U4176 and 
XAND2_924 P1_U3620 P1_U4179 P1_U4178 and 
XAND2_925 P1_U3621 P1_U4186 P1_U4184 and 
XAND3_926 P1_U3622 P1_U4187 P1_U4185 P1_U3621 and 
XAND4_927 P1_U3623 P1_U4141 P1_U4140 P1_U4139 P1_U4138 and 
XAND4_928 P1_U3624 P1_U4145 P1_U4144 P1_U4143 P1_U4142 and 
XAND4_929 P1_U3625 P1_U4149 P1_U4148 P1_U4147 P1_U4146 and 
XAND3_930 P1_U3626 P1_U4151 P1_U4150 P1_U4152 and 
XAND4_931 P1_U3627 P1_U3626 P1_U3625 P1_U3624 P1_U3623 and 
XAND4_932 P1_U3628 P1_U4156 P1_U4155 P1_U4154 P1_U4153 and 
XAND4_933 P1_U3629 P1_U4160 P1_U4159 P1_U4158 P1_U4157 and 
XAND4_934 P1_U3630 P1_U4164 P1_U4163 P1_U4162 P1_U4161 and 
XAND3_935 P1_U3631 P1_U4166 P1_U4165 P1_U4167 and 
XAND4_936 P1_U3632 P1_U3631 P1_U3630 P1_U3629 P1_U3628 and 
XAND2_937 P1_U3633 P1_U5742 P1_U4169 and 
XAND2_938 P1_U3634 P1_U5745 P1_U3022 and 
XAND2_939 P1_U3635 P1_U4202 P1_U4201 and 
XAND2_940 P1_U3636 P1_U4204 P1_U4203 and 
XAND3_941 P1_U3637 P1_U4206 P1_U4205 P1_U3636 and 
XAND4_942 P1_U3638 P1_U4209 P1_U4210 P1_U4211 P1_U4208 and 
XAND2_943 P1_U3639 P1_U4221 P1_U4220 and 
XAND2_944 P1_U3640 P1_U4223 P1_U4222 and 
XAND3_945 P1_U3641 P1_U4225 P1_U4224 P1_U3640 and 
XAND4_946 P1_U3642 P1_U4228 P1_U4229 P1_U4230 P1_U4227 and 
XAND2_947 P1_U3643 P1_U4240 P1_U4239 and 
XAND2_948 P1_U3644 P1_U4242 P1_U4241 and 
XAND3_949 P1_U3645 P1_U4244 P1_U4243 P1_U3644 and 
XAND4_950 P1_U3646 P1_U4247 P1_U4248 P1_U4249 P1_U4246 and 
XAND2_951 P1_U3647 P1_U4259 P1_U4258 and 
XAND2_952 P1_U3648 P1_U4261 P1_U4260 and 
XAND3_953 P1_U3649 P1_U4263 P1_U4262 P1_U3648 and 
XAND4_954 P1_U3650 P1_U4266 P1_U4267 P1_U4268 P1_U4265 and 
XAND2_955 P1_U3651 P1_U4278 P1_U4277 and 
XAND2_956 P1_U3652 P1_U4280 P1_U4279 and 
XAND3_957 P1_U3653 P1_U4282 P1_U4281 P1_U3652 and 
XAND4_958 P1_U3654 P1_U4285 P1_U4286 P1_U4287 P1_U4284 and 
XAND2_959 P1_U3655 P1_U4297 P1_U4296 and 
XAND2_960 P1_U3656 P1_U4299 P1_U4298 and 
XAND3_961 P1_U3657 P1_U4301 P1_U4300 P1_U3656 and 
XAND4_962 P1_U3658 P1_U4304 P1_U4305 P1_U4306 P1_U4303 and 
XAND2_963 P1_U3659 P1_U4316 P1_U4315 and 
XAND2_964 P1_U3660 P1_U4318 P1_U4317 and 
XAND3_965 P1_U3661 P1_U4320 P1_U4319 P1_U3660 and 
XAND4_966 P1_U3662 P1_U4323 P1_U4324 P1_U4325 P1_U4322 and 
XAND2_967 P1_U3663 P1_U4335 P1_U4334 and 
XAND2_968 P1_U3664 P1_U4337 P1_U4336 and 
XAND3_969 P1_U3665 P1_U4339 P1_U4338 P1_U3664 and 
XAND4_970 P1_U3666 P1_U4342 P1_U4343 P1_U4344 P1_U4341 and 
XAND2_971 P1_U3667 P1_U4354 P1_U4353 and 
XAND2_972 P1_U3668 P1_U4356 P1_U4355 and 
XAND3_973 P1_U3669 P1_U4358 P1_U4357 P1_U3668 and 
XAND4_974 P1_U3670 P1_U4361 P1_U4362 P1_U4363 P1_U4360 and 
XAND2_975 P1_U3671 P1_U4373 P1_U4372 and 
XAND2_976 P1_U3672 P1_U4375 P1_U4374 and 
XAND3_977 P1_U3673 P1_U4377 P1_U4376 P1_U3672 and 
XAND4_978 P1_U3674 P1_U4380 P1_U4381 P1_U4382 P1_U4379 and 
XAND2_979 P1_U3675 P1_U4392 P1_U4391 and 
XAND2_980 P1_U3676 P1_U4394 P1_U4393 and 
XAND3_981 P1_U3677 P1_U4396 P1_U4395 P1_U3676 and 
XAND4_982 P1_U3678 P1_U4401 P1_U4400 P1_U4399 P1_U4398 and 
XAND2_983 P1_U3679 P1_U4411 P1_U4410 and 
XAND2_984 P1_U3680 P1_U4413 P1_U4412 and 
XAND3_985 P1_U3681 P1_U4415 P1_U4414 P1_U3680 and 
XAND4_986 P1_U3682 P1_U4420 P1_U4419 P1_U4418 P1_U4417 and 
XAND2_987 P1_U3683 P1_U4430 P1_U4429 and 
XAND2_988 P1_U3684 P1_U4432 P1_U4431 and 
XAND3_989 P1_U3685 P1_U4434 P1_U4433 P1_U3684 and 
XAND4_990 P1_U3686 P1_U4439 P1_U4438 P1_U4437 P1_U4436 and 
XAND2_991 P1_U3687 P1_U4449 P1_U4448 and 
XAND2_992 P1_U3688 P1_U4451 P1_U4450 and 
XAND3_993 P1_U3689 P1_U4453 P1_U4452 P1_U3688 and 
XAND4_994 P1_U3690 P1_U4458 P1_U4455 P1_U4456 P1_U4457 and 
XAND2_995 P1_U3691 P1_U4468 P1_U4467 and 
XAND2_996 P1_U3692 P1_U4470 P1_U4469 and 
XAND3_997 P1_U3693 P1_U4472 P1_U4471 P1_U3692 and 
XAND4_998 P1_U3694 P1_U4475 P1_U4476 P1_U4477 P1_U4474 and 
XAND2_999 P1_U3695 P1_U4487 P1_U4486 and 
XAND2_1000 P1_U3696 P1_U4489 P1_U4488 and 
XAND3_1001 P1_U3697 P1_U4491 P1_U4490 P1_U3696 and 
XAND4_1002 P1_U3698 P1_U4494 P1_U4495 P1_U4496 P1_U4493 and 
XAND2_1003 P1_U3699 P1_U4506 P1_U4505 and 
XAND2_1004 P1_U3700 P1_U4508 P1_U4507 and 
XAND3_1005 P1_U3701 P1_U4510 P1_U4509 P1_U3700 and 
XAND4_1006 P1_U3702 P1_U4515 P1_U4512 P1_U4513 P1_U4514 and 
XAND2_1007 P1_U3703 P1_U4525 P1_U4524 and 
XAND2_1008 P1_U3704 P1_U4527 P1_U4526 and 
XAND3_1009 P1_U3705 P1_U4529 P1_U4528 P1_U3704 and 
XAND4_1010 P1_U3706 P1_U4534 P1_U4531 P1_U4532 P1_U4533 and 
XAND2_1011 P1_U3707 P1_U4544 P1_U4543 and 
XAND2_1012 P1_U3708 P1_U4546 P1_U4545 and 
XAND3_1013 P1_U3709 P1_U4548 P1_U4547 P1_U3708 and 
XAND4_1014 P1_U3710 P1_U4551 P1_U4552 P1_U4553 P1_U4550 and 
XAND2_1015 P1_U3711 P1_U4563 P1_U4562 and 
XAND2_1016 P1_U3712 P1_U4565 P1_U4564 and 
XAND3_1017 P1_U3713 P1_U4567 P1_U4566 P1_U3712 and 
XAND4_1018 P1_U3714 P1_U4570 P1_U4571 P1_U4572 P1_U4569 and 
XAND2_1019 P1_U3715 P1_U4582 P1_U4581 and 
XAND2_1020 P1_U3716 P1_U4584 P1_U4583 and 
XAND3_1021 P1_U3717 P1_U4586 P1_U4585 P1_U3716 and 
XAND4_1022 P1_U3718 P1_U4589 P1_U4590 P1_U4591 P1_U4588 and 
XAND2_1023 P1_U3719 P1_U4601 P1_U4600 and 
XAND2_1024 P1_U3720 P1_U4603 P1_U4602 and 
XAND3_1025 P1_U3721 P1_U4605 P1_U4604 P1_U3720 and 
XAND4_1026 P1_U3722 P1_U4608 P1_U4609 P1_U4610 P1_U4607 and 
XAND2_1027 P1_U3723 P1_U4620 P1_U4619 and 
XAND2_1028 P1_U3724 P1_U4622 P1_U4621 and 
XAND3_1029 P1_U3725 P1_U4624 P1_U4623 P1_U3724 and 
XAND4_1030 P1_U3726 P1_U4627 P1_U4628 P1_U4629 P1_U4626 and 
XAND2_1031 P1_U3727 P1_U4639 P1_U4638 and 
XAND2_1032 P1_U3728 P1_U4641 P1_U4640 and 
XAND3_1033 P1_U3729 P1_U4643 P1_U4642 P1_U3728 and 
XAND4_1034 P1_U3730 P1_U4646 P1_U4647 P1_U4648 P1_U4645 and 
XAND2_1035 P1_U3731 P1_U4658 P1_U4657 and 
XAND2_1036 P1_U3732 P1_U4660 P1_U4659 and 
XAND3_1037 P1_U3733 P1_U4662 P1_U4661 P1_U3732 and 
XAND4_1038 P1_U3734 P1_U4665 P1_U4666 P1_U4667 P1_U4664 and 
XAND2_1039 P1_U3735 P1_U4677 P1_U4676 and 
XAND2_1040 P1_U3736 P1_U4679 P1_U4678 and 
XAND3_1041 P1_U3737 P1_U4681 P1_U4680 P1_U3736 and 
XAND4_1042 P1_U3738 P1_U4684 P1_U4685 P1_U4686 P1_U4683 and 
XAND2_1043 P1_U3739 P1_U4696 P1_U4695 and 
XAND2_1044 P1_U3740 P1_U4698 P1_U4697 and 
XAND3_1045 P1_U3741 P1_U4700 P1_U4699 P1_U3740 and 
XAND4_1046 P1_U3742 P1_U4703 P1_U4704 P1_U4705 P1_U4702 and 
XAND2_1047 P1_U3743 P1_U4715 P1_U4714 and 
XAND2_1048 P1_U3744 P1_U4717 P1_U4716 and 
XAND3_1049 P1_U3745 P1_U4719 P1_U4718 P1_U3744 and 
XAND4_1050 P1_U3746 P1_U4722 P1_U4723 P1_U4724 P1_U4721 and 
XAND2_1051 P1_U3747 P1_U4731 P1_U4020 and 
XAND5_1052 P1_U3748 P1_U4733 P1_U4732 P1_U4734 P1_U4735 P1_U4736 and 
XAND2_1053 P1_U3749 P1_U4738 P1_U4737 and 
XAND3_1054 P1_U3750 P1_U4740 P1_U4739 P1_U3749 and 
XAND3_1055 P1_U3751 P1_U4743 P1_U4744 P1_U4742 and 
XAND2_1056 P1_U3752 P1_U4020 P1_U4731 and 
XAND2_1057 P1_U3753 P1_U3022 P1_U3452 and 
XAND3_1058 P1_U3754 P1_U5745 P1_U4002 P1_U3453 and 
XAND3_1059 P1_U3755 P1_U4761 P1_U4760 P1_U4762 and 
XAND3_1060 P1_U3756 P1_U4764 P1_U4763 P1_U3949 and 
XAND3_1061 P1_U3757 P1_U4766 P1_U4765 P1_U4767 and 
XAND3_1062 P1_U3758 P1_U4769 P1_U4768 P1_U3950 and 
XAND3_1063 P1_U3759 P1_U4771 P1_U4770 P1_U4772 and 
XAND3_1064 P1_U3760 P1_U4774 P1_U4773 P1_U3951 and 
XAND3_1065 P1_U3761 P1_U4776 P1_U4775 P1_U4777 and 
XAND3_1066 P1_U3762 P1_U4779 P1_U4778 P1_U3952 and 
XAND3_1067 P1_U3763 P1_U4781 P1_U4780 P1_U4782 and 
XAND3_1068 P1_U3764 P1_U4784 P1_U4783 P1_U3953 and 
XAND3_1069 P1_U3765 P1_U4786 P1_U4785 P1_U4787 and 
XAND2_1070 P1_U3766 P1_U4789 P1_U4788 and 
XAND3_1071 P1_U3767 P1_U4791 P1_U4790 P1_U4792 and 
XAND2_1072 P1_U3768 P1_U4794 P1_U4793 and 
XAND3_1073 P1_U3769 P1_U4796 P1_U4795 P1_U4797 and 
XAND2_1074 P1_U3770 P1_U4799 P1_U4798 and 
XAND3_1075 P1_U3771 P1_U4801 P1_U4800 P1_U4802 and 
XAND2_1076 P1_U3772 P1_U4804 P1_U4803 and 
XAND2_1077 P1_U3773 P1_U4806 P1_U4805 and 
XAND2_1078 P1_U3774 P1_U4809 P1_U4808 and 
XAND2_1079 P1_U3775 P1_U4811 P1_U4810 and 
XAND2_1080 P1_U3776 P1_U4814 P1_U4813 and 
XAND3_1081 P1_U3777 P1_U4816 P1_U4815 P1_U4817 and 
XAND2_1082 P1_U3778 P1_U4819 P1_U4818 and 
XAND3_1083 P1_U3779 P1_U4821 P1_U4820 P1_U4822 and 
XAND2_1084 P1_U3780 P1_U4824 P1_U4823 and 
XAND3_1085 P1_U3781 P1_U4826 P1_U4825 P1_U4827 and 
XAND2_1086 P1_U3782 P1_U4829 P1_U4828 and 
XAND3_1087 P1_U3783 P1_U4831 P1_U4830 P1_U4832 and 
XAND2_1088 P1_U3784 P1_U4834 P1_U4833 and 
XAND2_1089 P1_U3785 P1_U4836 P1_U4835 and 
XAND2_1090 P1_U3786 P1_U4839 P1_U4838 and 
XAND2_1091 P1_U3787 P1_U4841 P1_U4840 and 
XAND2_1092 P1_U3788 P1_U4844 P1_U4843 and 
XAND3_1093 P1_U3789 P1_U4846 P1_U4845 P1_U4847 and 
XAND2_1094 P1_U3790 P1_U4849 P1_U4848 and 
XAND3_1095 P1_U3791 P1_U4851 P1_U4850 P1_U4852 and 
XAND2_1096 P1_U3792 P1_U4854 P1_U4853 and 
XAND2_1097 P1_U3793 P1_U4856 P1_U4855 and 
XAND2_1098 P1_U3794 P1_U4859 P1_U4858 and 
XAND2_1099 P1_U3795 P1_U4861 P1_U4860 and 
XAND2_1100 P1_U3796 P1_U4864 P1_U4863 and 
XAND2_1101 P1_U3797 P1_U4866 P1_U4865 and 
XAND2_1102 P1_U3798 P1_U4869 P1_U4868 and 
XAND2_1103 P1_U3799 P1_U4871 P1_U4870 and 
XAND2_1104 P1_U3800 P1_U4874 P1_U4873 and 
XAND2_1105 P1_U3801 P1_U4876 P1_U4875 and 
XAND2_1106 P1_U3802 P1_U4879 P1_U4878 and 
XAND2_1107 P1_U3803 P1_U4881 P1_U4880 and 
XAND2_1108 P1_U3804 P1_U4884 P1_U4883 and 
XAND2_1109 P1_U3805 P1_U4886 P1_U4885 and 
XAND2_1110 P1_U3806 P1_U4889 P1_U4888 and 
XAND2_1111 P1_U3807 P1_U4891 P1_U4890 and 
XAND2_1112 P1_U3808 P1_U4894 P1_U4893 and 
XAND2_1113 P1_U3809 P1_U4896 P1_U4895 and 
XAND2_1114 P1_U3810 P1_U4899 P1_U4898 and 
XAND2_1115 P1_U3811 P1_U4901 P1_U4900 and 
XAND2_1116 P1_U3812 P1_U4904 P1_U4903 and 
XAND3_1117 P1_U3813 P1_U3419 P1_U3369 P1_U3365 and 
XAND3_1118 P1_U3814 P1_U3367 P1_U3364 P1_U3360 and 
XAND2_1119 P1_U3815 P1_U3361 P1_U3363 and 
XAND2_1120 P1_U3816 P1_U3815 P1_U3420 and 
XAND2_1121 P1_U3817 P1_U3439 P1_STATE_REG and 
XAND2_1122 P1_U3818 P1_U4924 P1_U4925 and 
XAND3_1123 P1_U3819 P1_U4928 P1_U4926 P1_U4927 and 
XAND2_1124 P1_U3820 P1_U4934 P1_U4935 and 
XAND3_1125 P1_U3821 P1_U4938 P1_U4936 P1_U4937 and 
XAND2_1126 P1_U3822 P1_U4944 P1_U4945 and 
XAND3_1127 P1_U3823 P1_U4948 P1_U4946 P1_U4947 and 
XAND2_1128 P1_U3824 P1_U4954 P1_U4955 and 
XAND3_1129 P1_U3825 P1_U4958 P1_U4956 P1_U4957 and 
XAND2_1130 P1_U3826 P1_U4964 P1_U4965 and 
XAND3_1131 P1_U3827 P1_U4968 P1_U4966 P1_U4967 and 
XAND2_1132 P1_U3828 P1_U4974 P1_U4975 and 
XAND3_1133 P1_U3829 P1_U4978 P1_U4976 P1_U4977 and 
XAND2_1134 P1_U3830 P1_U4984 P1_U4985 and 
XAND3_1135 P1_U3831 P1_U4988 P1_U4986 P1_U4987 and 
XAND2_1136 P1_U3832 P1_U4994 P1_U4995 and 
XAND3_1137 P1_U3833 P1_U4998 P1_U4996 P1_U4997 and 
XAND2_1138 P1_U3834 P1_U5004 P1_U5005 and 
XAND3_1139 P1_U3835 P1_U5008 P1_U5006 P1_U5007 and 
XAND2_1140 P1_U3836 P1_U5014 P1_U5015 and 
XAND3_1141 P1_U3837 P1_U5018 P1_U5016 P1_U5017 and 
XAND2_1142 P1_U3838 P1_U5024 P1_U5025 and 
XAND3_1143 P1_U3839 P1_U5028 P1_U5026 P1_U5027 and 
XAND2_1144 P1_U3840 P1_U5034 P1_U5035 and 
XAND3_1145 P1_U3841 P1_U5038 P1_U5036 P1_U5037 and 
XAND2_1146 P1_U3842 P1_U5044 P1_U5045 and 
XAND3_1147 P1_U3843 P1_U5047 P1_U5046 P1_U5048 and 
XAND3_1148 P1_U3844 P1_U5054 P1_U5055 P1_U5053 and 
XAND3_1149 P1_U3845 P1_U5057 P1_U5056 P1_U5058 and 
XAND3_1150 P1_U3846 P1_U5064 P1_U5065 P1_U5063 and 
XAND3_1151 P1_U3847 P1_U5067 P1_U5066 P1_U5068 and 
XAND2_1152 P1_U3848 P1_U5073 P1_U4031 and 
XAND3_1153 P1_U3849 P1_U5075 P1_U5074 P1_U3848 and 
XAND3_1154 P1_U3850 P1_U5077 P1_U5076 P1_U5078 and 
XAND3_1155 P1_U3851 P1_U5084 P1_U5085 P1_U5083 and 
XAND3_1156 P1_U3852 P1_U5087 P1_U5086 P1_U5088 and 
XAND2_1157 P1_U3853 P1_U5093 P1_U4031 and 
XAND3_1158 P1_U3854 P1_U5095 P1_U5094 P1_U3853 and 
XAND3_1159 P1_U3855 P1_U5097 P1_U5096 P1_U5098 and 
XAND3_1160 P1_U3856 P1_U5104 P1_U5105 P1_U5103 and 
XAND3_1161 P1_U3857 P1_U5107 P1_U5106 P1_U5108 and 
XAND3_1162 P1_U3858 P1_U5114 P1_U5115 P1_U5113 and 
XAND3_1163 P1_U3859 P1_U5117 P1_U5116 P1_U5118 and 
XAND2_1164 P1_U3860 P1_STATE_REG P1_U3426 and 
XAND2_1165 P1_U3861 P1_U3860 P1_U3424 and 
XAND3_1166 P1_U3862 P1_U6127 P1_U6124 P1_U6130 and 
XAND3_1167 P1_U3863 P1_U3864 P1_U3862 P1_U6142 and 
XAND3_1168 P1_U3864 P1_U6139 P1_U6136 P1_U6133 and 
XAND3_1169 P1_U3865 P1_U6151 P1_U6148 P1_U6154 and 
XAND3_1170 P1_U3866 P1_U6160 P1_U6157 P1_U6163 and 
XAND3_1171 P1_U3867 P1_U3866 P1_U3865 P1_U6145 and 
XAND4_1172 P1_U3868 P1_U3867 P1_U3863 P1_U6121 P1_U6166 and 
XAND2_1173 P1_U3869 P1_U6190 P1_U6187 and 
XAND5_1174 P1_U3870 P1_U6181 P1_U6178 P1_U6175 P1_U6172 P1_U6184 and 
XAND2_1175 P1_U3871 P1_U3870 P1_U6169 and 
XAND4_1176 P1_U3872 P1_U6112 P1_U6109 P1_U6106 P1_U6103 and 
XAND2_1177 P1_U3873 P1_U6118 P1_U6115 and 
XAND4_1178 P1_U3874 P1_U3873 P1_U3872 P1_U6100 P1_U6097 and 
XAND4_1179 P1_U3875 P1_U5689 P1_U5123 P1_U3984 P1_U5687 and 
XAND2_1180 P1_U3876 P1_U3452 P1_U3453 and 
XAND3_1181 P1_U3877 P1_U3370 P1_U3368 P1_U3420 and 
XAND2_1182 P1_U3878 P1_U5703 P1_U4002 and 
XAND2_1183 P1_U3879 P1_U3424 P1_U3878 and 
XAND2_1184 P1_U3880 P1_U3022 P1_U5132 and 
XAND2_1185 P1_U3881 P1_U3882 P1_U5175 and 
XAND2_1186 P1_U3882 P1_U5179 P1_U5178 and 
XAND2_1187 P1_U3883 P1_U4027 P1_U3076 and 
XAND2_1188 P1_U3884 P1_U5220 P1_U5219 and 
XAND2_1189 P1_U3885 P1_U5223 P1_U5222 and 
XAND2_1190 P1_U3886 P1_U3887 P1_U5237 and 
XAND2_1191 P1_U3887 P1_U5241 P1_U5240 and 
XAND2_1192 P1_U3888 P1_U5268 P1_U5267 and 
XAND2_1193 P1_U3889 P1_U3890 P1_U5309 and 
XAND2_1194 P1_U3890 P1_U5313 P1_U5312 and 
XAND2_1195 P1_U3891 P1_U3892 P1_U5345 and 
XAND2_1196 P1_U3892 P1_U5349 P1_U5348 and 
XAND2_1197 P1_U3893 P1_U3434 P1_U5398 and 
XAND2_1198 P1_U3894 P1_U5463 P1_U5464 and 
XAND2_1199 P1_U3895 P1_U5523 P1_U5521 and 
XAND2_1200 P1_U3896 P1_U3439 P1_U5535 and 
XAND2_1201 P1_U3897 P1_U3439 P1_U5541 and 
XAND2_1202 P1_U3898 P1_U5544 P1_U3439 and 
XAND2_1203 P1_U3899 P1_U5546 P1_U3439 and 
XAND2_1204 P1_U3900 P1_U5548 P1_U3439 and 
XAND2_1205 P1_U3901 P1_U5550 P1_U3439 and 
XAND2_1206 P1_U3902 P1_U5552 P1_U3439 and 
XAND2_1207 P1_U3903 P1_U5554 P1_U3439 and 
XAND2_1208 P1_U3904 P1_U5556 P1_U3439 and 
XAND2_1209 P1_U3905 P1_U5558 P1_U3439 and 
XAND2_1210 P1_U3906 P1_U5560 P1_U3439 and 
XAND2_1211 P1_U3907 P1_U5562 P1_U3439 and 
XAND2_1212 P1_U3908 P1_U3439 P1_U5563 and 