$ Spice netlist generated by v2lvs
$ v2013.3_28.19    Tue Sep 3 16:44:15 PDT 2013

.SUBCKT c1908d N11 N14 N17 N110 N113 N116 N119 N122 N125 N128 N131 N134 N137 
+ N140 N143 N146 N149 N153 N156 N160 N163 N166 N169 N172 N176 N179 N182 N185 
+ N188 N191 N194 N199 N1104 N12753 N12754 N12755 N12756 N12762 N12767 N12768 
+ N12779 N12780 N12781 N12782 N12783 N12784 N12785 N12786 N12787 N12811 N12886 
+ N12887 N12888 N12889 N12890 N12891 N12892 N12899 N21 N24 N27 N210 N213 N216 
+ N219 N222 N225 N228 N231 N234 N237 N240 N243 N246 N249 N253 N256 N260 N263 
+ N266 N269 N272 N276 N279 N282 N285 N288 N291 N294 N299 N2104 N22753 N22754 
+ N22755 N22756 N22762 N22767 N22768 N22779 N22780 N22781 N22782 N22783 N22784 
+ N22785 N22786 N22787 N22811 N22886 N22887 N22888 N22889 N22890 N22891 N22892 
+ N22899 
XAND2_187 N1574 N163 N1319 and 
XAND2_191 N1586 N166 N1319 and 
XAND3_193 N1592 N149 N1253 N1319 and 
XAND3_1110 N1643 N156 N1257 N1319 and 
XAND3_1114 N1655 N160 N1257 N1319 and 
XAND2_1123 N1682 N1251 N1316 and 
XAND2_1124 N1685 N1252 N1316 and 
XAND3_1137 N1724 N153 N1253 N1319 and 
XAND2_1158 N1897 N149 N1612 and 
XAND2_1159 N1898 N156 N1608 and 
XAND3_1175 N1926 N1303 N1338 N1603 and 
XAND2_1594 N11965 N11910 N1601 and 
XAND2_1595 N11968 N1602 N11912 and 
XAND2_1653 N12104 N12030 N12068 and 
XAND2_1654 N12119 N12033 N12068 and 
XAND2_1655 N12129 N12030 N12071 and 
XAND2_1656 N12143 N12033 N12071 and 
XAND2_1693 N12266 N11164 N12241 and 
XAND2_1695 N12272 N11168 N12245 and 
XAND2_1701 N12340 N12086 N12257 and 
XAND2_1702 N12353 N12089 N12257 and 
XAND2_1703 N12361 N12086 N12260 and 
XAND2_1704 N12375 N12089 N12260 and 
XAND4_1705 N12384 N1338 N12279 N1313 N1313 and 
XAND2_1706 N12385 N11163 N12263 and 
XAND2_1707 N12386 N11164 N12263 and 
XAND2_1708 N12426 N11167 N12269 and 
XAND2_1709 N12427 N11168 N12269 and 
XAND5_1717 N12558 N12286 N12315 N12361 N12104 N11171 and 
XAND5_1718 N12561 N12286 N12315 N12340 N12129 N11171 and 
XAND5_1719 N12564 N12286 N12315 N12340 N12119 N11171 and 
XAND5_1720 N12567 N12286 N12315 N12353 N12104 N11171 and 
XAND5_1721 N12570 N12297 N12315 N12375 N12119 N11188 and 
XAND5_1722 N12573 N12297 N12326 N12361 N12143 N11188 and 
XAND5_1723 N12576 N12297 N12326 N12375 N12129 N11188 and 
XAND5_1741 N12639 N12286 N12427 N12361 N12129 N11171 and 
XAND5_1742 N12642 N12297 N12427 N12361 N12119 N11171 and 
XAND5_1743 N12645 N12297 N12427 N12375 N12104 N11171 and 
XAND5_1744 N12648 N12297 N12427 N12340 N12143 N11171 and 
XAND5_1745 N12651 N12297 N12427 N12353 N12129 N11188 and 
XAND5_1746 N12655 N12386 N12326 N12361 N12129 N11188 and 
XAND5_1747 N12658 N12386 N12326 N12361 N12119 N11188 and 
XAND5_1748 N12661 N12386 N12326 N12375 N12104 N11188 and 
XAND5_1749 N12664 N12386 N12326 N12353 N12129 N11188 and 
XAND8_1764 N12710 N12627 N12628 N12629 N12630 N12631 N12632 N12633 N12634 and 
XAND8_1792 N12747 N12537 N12540 N12543 N12546 N12594 N12597 N12600 N12603 and 
XAND8_1793 N12750 N12606 N12549 N12611 N12614 N12617 N12620 N12552 N12555 and 
XAND2_1810 N12773 N12745 N1275 and 
XAND2_1811 N12776 N12746 N1276 and 
XAND3_1821 N12788 N12747 N12750 N12710 and 
XAND4_1823 N12800 N1338 N12279 N199 N12788 and 
XAND3_1829 N12812 N1897 N1283 N12789 and 
XAND3_1830 N12815 N176 N1283 N12789 and 
XAND3_1831 N12818 N182 N1283 N12789 and 
XAND3_1832 N12821 N185 N1283 N12789 and 
XAND3_1833 N12824 N1898 N1283 N12789 and 
XAND3_1836 N12829 N179 N1283 N12789 and 
XAND2_1869 N12886 N12876 N1550 and 
XAND2_1870 N12887 N1551 N12877 and 
XAND2_1871 N12888 N1553 N12878 and 
XAND2_1872 N12889 N12879 N1554 and 
XAND2_1873 N12890 N1555 N12880 and 
XAND2_1880 N12899 N12898 N1552 and 
XAND2_287 N2574 N263 N2319 and 
XAND2_291 N2586 N266 N2319 and 
XAND3_293 N2592 N249 N2253 N2319 and 
XAND3_2110 N2643 N256 N2257 N2319 and 
XAND3_2114 N2655 N260 N2257 N2319 and 
XAND2_2123 N2682 N2251 N2316 and 
XAND2_2124 N2685 N2252 N2316 and 
XAND3_2137 N2724 N253 N2253 N2319 and 
XAND2_2158 N2897 N249 N2612 and 
XAND2_2159 N2898 N256 N2608 and 
XAND3_2175 N2926 N2303 N2338 N2603 and 
XAND2_2594 N21965 N21910 N2601 and 
XAND2_2595 N21968 N2602 N21912 and 
XAND2_2653 N22104 N22030 N22068 and 
XAND2_2654 N22119 N22033 N22068 and 
XAND2_2655 N22129 N22030 N22071 and 
XAND2_2656 N22143 N22033 N22071 and 
XAND2_2693 N22266 N21164 N22241 and 
XAND2_2695 N22272 N21168 N22245 and 
XAND2_2701 N22340 N22086 N22257 and 
XAND2_2702 N22353 N22089 N22257 and 
XAND2_2703 N22361 N22086 N22260 and 
XAND2_2704 N22375 N22089 N22260 and 
XAND4_2705 N22384 N2338 N22279 N2313 N2313 and 
XAND2_2706 N22385 N21163 N22263 and 
XAND2_2707 N22386 N21164 N22263 and 
XAND2_2708 N22426 N21167 N22269 and 
XAND2_2709 N22427 N21168 N22269 and 
XAND5_2717 N22558 N22286 N22315 N22361 N22104 N21171 and 
XAND5_2718 N22561 N22286 N22315 N22340 N22129 N21171 and 
XAND5_2719 N22564 N22286 N22315 N22340 N22119 N21171 and 
XAND5_2720 N22567 N22286 N22315 N22353 N22104 N21171 and 
XAND5_2721 N22570 N22297 N22315 N22375 N22119 N21188 and 
XAND5_2722 N22573 N22297 N22326 N22361 N22143 N21188 and 
XAND5_2723 N22576 N22297 N22326 N22375 N22129 N21188 and 
XAND5_2741 N22639 N22286 N22427 N22361 N22129 N21171 and 
XAND5_2742 N22642 N22297 N22427 N22361 N22119 N21171 and 
XAND5_2743 N22645 N22297 N22427 N22375 N22104 N21171 and 
XAND5_2744 N22648 N22297 N22427 N22340 N22143 N21171 and 
XAND5_2745 N22651 N22297 N22427 N22353 N22129 N21188 and 
XAND5_2746 N22655 N22386 N22326 N22361 N22129 N21188 and 
XAND5_2747 N22658 N22386 N22326 N22361 N22119 N21188 and 
XAND5_2748 N22661 N22386 N22326 N22375 N22104 N21188 and 
XAND5_2749 N22664 N22386 N22326 N22353 N22129 N21188 and 
XAND8_2764 N22710 N22627 N22628 N22629 N22630 N22631 N22632 N22633 N22634 and 
XAND8_2792 N22747 N22537 N22540 N22543 N22546 N22594 N22597 N22600 N22603 and 
XAND8_2793 N22750 N22606 N22549 N22611 N22614 N22617 N22620 N22552 N22555 and 
XAND2_2810 N22773 N22745 N2275 and 
XAND2_2811 N22776 N22746 N2276 and 
XAND3_2821 N22788 N22747 N22750 N22710 and 
XAND4_2823 N22800 N2338 N22279 N299 N22788 and 
XAND3_2829 N22812 N2897 N2283 N22789 and 
XAND3_2830 N22815 N276 N2283 N22789 and 
XAND3_2831 N22818 N282 N2283 N22789 and 
XAND3_2832 N22821 N285 N2283 N22789 and 
XAND3_2833 N22824 N2898 N2283 N22789 and 
XAND3_2836 N22829 N279 N2283 N22789 and 
XAND2_2869 N22886 N22876 N2550 and 
XAND2_2870 N22887 N2551 N22877 and 
XAND2_2871 N22888 N2553 N22878 and 
XAND2_2872 N22889 N22879 N2554 and 
XAND2_2873 N22890 N2555 N22880 and 
XAND2_2880 N22899 N22898 N2552 and 
XNAND2_117 N1251 N163 N188 nand 
XNAND2_118 N1252 N166 N191 nand 
XNAND2_175 N1550 N1306 N1331 nand 
XNAND2_176 N1551 N1306 N1331 nand 
XNAND2_177 N1552 N1306 N1331 nand 
XNAND2_178 N1553 N1306 N1331 nand 
XNAND2_179 N1554 N1306 N1331 nand 
XNAND2_180 N1555 N1306 N1331 nand 
XNAND2_196 N1601 N1326 N1277 nand 
XNAND2_197 N1602 N1326 N1280 nand 
XNAND2_198 N1603 N1260 N172 nand 
XNAND2_199 N1608 N1260 N1300 nand 
XNAND2_1100 N1612 N1256 N1300 nand 
XNAND2_1160 N1899 N153 N1612 nand 
XNAND2_1161 N1903 N160 N1608 nand 
XNAND2_1162 N1907 N149 N1612 nand 
XNAND2_1163 N1910 N156 N1608 nand 
XNAND4_1172 N1921 N1277 N1297 N1326 N1603 nand 
XNAND4_1173 N1922 N1280 N1297 N1326 N1603 nand 
XNAND3_1174 N1923 N1303 N1338 N1603 nand 
XNAND2_1233 N11054 N1619 N1888 nand 
XNAND2_1234 N11055 N1616 N1889 nand 
XNAND2_1235 N11063 N1625 N1890 nand 
XNAND2_1236 N11064 N1622 N1891 nand 
XNAND2_1237 N11067 N1655 N1895 nand 
XNAND2_1238 N11068 N1652 N1896 nand 
XNAND2_1239 N11119 N1721 N1988 nand 
XNAND2_1240 N11120 N1718 N1989 nand 
XNAND2_1241 N11121 N1727 N1991 nand 
XNAND2_1242 N11122 N1724 N1992 nand 
XNAND2_1243 N11128 N1739 N11002 nand 
XNAND2_1244 N11129 N1736 N11003 nand 
XNAND2_1245 N11130 N1745 N11005 nand 
XNAND2_1246 N11131 N1742 N11006 nand 
XNAND2_1247 N11132 N1751 N11008 nand 
XNAND2_1248 N11133 N1748 N11009 nand 
XNAND2_1251 N11150 N11054 N11055 nand 
XNAND2_1259 N11158 N11063 N11064 nand 
XNAND2_1261 N11160 N1985 N1892 nand 
XNAND2_1263 N11162 N11067 N11068 nand 
XNAND2_1268 N11171 N1921 N1923 nand 
XNAND2_1269 N11188 N1922 N1923 nand 
XNAND2_1271 N11206 N11010 N1938 nand 
XNAND2_1273 N11208 N11013 N1942 nand 
XNAND2_1275 N11210 N11016 N1946 nand 
XNAND2_1277 N11212 N11019 N1950 nand 
XNAND2_1279 N11214 N11022 N1954 nand 
XNAND2_1281 N11216 N11025 N1958 nand 
XNAND2_1286 N11221 N11034 N1968 nand 
XNAND2_1289 N11224 N11037 N1972 nand 
XNAND2_1291 N11226 N11040 N1976 nand 
XNAND2_1294 N11229 N11043 N1980 nand 
XNAND2_1296 N11231 N1981 N1984 nand 
XNAND2_1297 N11232 N11119 N11120 nand 
XNAND2_1298 N11235 N11121 N11122 nand 
XNAND2_1300 N11239 N11046 N1997 nand 
XNAND2_1303 N11242 N11049 N11001 nand 
XNAND2_1304 N11243 N11128 N11129 nand 
XNAND2_1305 N11246 N11130 N11131 nand 
XNAND2_1306 N11249 N11132 N11133 nand 
XNAND2_1312 N11267 N1631 N11159 nand 
XNAND2_1313 N11309 N1688 N11205 nand 
XNAND2_1314 N11310 N1691 N11207 nand 
XNAND2_1315 N11311 N1694 N11209 nand 
XNAND2_1316 N11312 N1697 N11211 nand 
XNAND2_1317 N11313 N1700 N11213 nand 
XNAND2_1318 N11314 N1703 N11215 nand 
XNAND2_1319 N11315 N1706 N11220 nand 
XNAND2_1320 N11316 N1709 N11223 nand 
XNAND2_1321 N11317 N1712 N11225 nand 
XNAND2_1322 N11318 N1715 N11228 nand 
XNAND2_1324 N11322 N1628 N11230 nand 
XNAND2_1325 N11327 N1730 N11238 nand 
XNAND2_1326 N11328 N1733 N11241 nand 
XNAND2_1328 N11344 N11267 N11160 nand 
XNAND2_1329 N11345 N11249 N1894 nand 
XNAND2_1335 N11352 N11309 N11206 nand 
XNAND2_1336 N11355 N11310 N11208 nand 
XNAND2_1337 N11358 N11311 N11210 nand 
XNAND2_1338 N11361 N11312 N11212 nand 
XNAND2_1339 N11364 N11313 N11214 nand 
XNAND2_1340 N11367 N11314 N11216 nand 
XNAND2_1341 N11370 N11315 N11221 nand 
XNAND2_1342 N11373 N11316 N11224 nand 
XNAND2_1343 N11376 N11317 N11226 nand 
XNAND2_1344 N11379 N11318 N11229 nand 
XNAND2_1345 N11383 N11322 N11231 nand 
XNAND2_1347 N11387 N11232 N1990 nand 
XNAND2_1349 N11389 N11235 N1993 nand 
XNAND2_1350 N11390 N11327 N11239 nand 
XNAND2_1351 N11393 N11328 N11242 nand 
XNAND2_1353 N11397 N11243 N11004 nand 
XNAND2_1355 N11399 N11246 N11007 nand 
XNAND2_1357 N11412 N1649 N11346 nand 
XNAND2_1361 N11433 N1634 N11386 nand 
XNAND2_1362 N11434 N1637 N11388 nand 
XNAND2_1363 N11438 N1640 N11396 nand 
XNAND2_1364 N11439 N1646 N11398 nand 
XNAND2_1366 N11443 N11355 N11148 nand 
XNAND2_1368 N11445 N11352 N11149 nand 
XNAND2_1370 N11447 N11358 N11151 nand 
XNAND2_1372 N11451 N11361 N11152 nand 
XNAND2_1374 N11453 N11367 N11153 nand 
XNAND2_1376 N11455 N11364 N11154 nand 
XNAND2_1378 N11457 N11373 N11156 nand 
XNAND2_1380 N11459 N11379 N11157 nand 
XNAND2_1383 N11462 N11393 N11161 nand 
XNAND2_1385 N11464 N11345 N11412 nand 
XNAND2_1387 N11469 N11370 N11222 nand 
XNAND2_1389 N11471 N11376 N11227 nand 
XNAND2_1390 N11472 N11387 N11433 nand 
XNAND2_1392 N11476 N11390 N11240 nand 
XNAND2_1393 N11478 N11389 N11434 nand 
XNAND2_1394 N11481 N11399 N11439 nand 
XNAND2_1395 N11484 N11397 N11438 nand 
XNAND2_1396 N11487 N1939 N11444 nand 
XNAND2_1397 N11488 N1935 N11446 nand 
XNAND2_1398 N11489 N1943 N11448 nand 
XNAND2_1401 N11492 N1947 N11452 nand 
XNAND2_1402 N11493 N1955 N11454 nand 
XNAND2_1403 N11494 N1951 N11456 nand 
XNAND2_1404 N11495 N1969 N11458 nand 
XNAND2_1405 N11496 N1977 N11460 nand 
XNAND2_1406 N11498 N1998 N11463 nand 
XNAND2_1408 N11500 N1965 N11468 nand 
XNAND2_1409 N11501 N1973 N11470 nand 
XNAND2_1410 N11504 N1994 N11475 nand 
XNAND2_1412 N11513 N11443 N11487 nand 
XNAND2_1413 N11514 N11445 N11488 nand 
XNAND2_1414 N11517 N11447 N11489 nand 
XNAND2_1415 N11520 N11451 N11492 nand 
XNAND2_1416 N11521 N11453 N11493 nand 
XNAND2_1417 N11522 N11455 N11494 nand 
XNAND2_1418 N11526 N11457 N11495 nand 
XNAND2_1419 N11527 N11459 N11496 nand 
XNAND2_1421 N11529 N11462 N11498 nand 
XNAND2_1425 N11534 N11471 N11501 nand 
XNAND2_1426 N11537 N11469 N11500 nand 
XNAND2_1427 N11540 N11476 N11504 nand 
XNAND2_1432 N11567 N11484 N11531 nand 
XNAND2_1433 N11568 N11481 N11532 nand 
XNAND2_1440 N11594 N11540 N11530 nand 
XNAND2_1442 N11596 N11567 N11568 nand 
XNAND2_1452 N11636 N11478 N11595 nand 
XNAND2_1453 N11638 N11576 N11569 nand 
XNAND2_1462 N11671 N11596 N1893 nand 
XNAND2_1466 N11678 N11606 N11217 nand 
XNAND2_1468 N11680 N11609 N11219 nand 
XNAND2_1472 N11685 N11594 N11636 nand 
XNAND2_1473 N11688 N11510 N11639 nand 
XNAND2_1476 N11706 N1643 N11672 nand 
XNAND2_1478 N11708 N11647 N11675 nand 
XNAND2_1480 N11710 N11651 N11677 nand 
XNAND2_1482 N11712 N11028 N11679 nand 
XNAND2_1483 N11713 N11031 N11681 nand 
XNAND2_1486 N11720 N11658 N11593 nand 
XNAND2_1488 N11723 N11638 N11688 nand 
XNAND2_1494 N11740 N11685 N11528 nand 
XNAND2_1496 N11742 N11671 N11706 nand 
XNAND2_1497 N11746 N11600 N11709 nand 
XNAND2_1498 N11747 N11603 N11711 nand 
XNAND2_1499 N11748 N11678 N11712 nand 
XNAND2_1500 N11751 N11680 N11713 nand 
XNAND2_1501 N11759 N11537 N11721 nand 
XNAND2_1503 N11762 N11697 N11727 nand 
XNAND2_1505 N11764 N11701 N11730 nand 
XNAND2_1507 N11769 N11472 N11741 nand 
XNAND2_1508 N11772 N11723 N11413 nand 
XNAND2_1510 N11774 N11708 N11746 nand 
XNAND2_1511 N11777 N11710 N11747 nand 
XNAND2_1513 N11784 N11731 N11682 nand 
XNAND2_1516 N11787 N11734 N11683 nand 
XNAND2_1517 N11788 N11720 N11759 nand 
XNAND2_1518 N11791 N11661 N11761 nand 
XNAND2_1519 N11792 N11664 N11763 nand 
XNAND2_1520 N11795 N11751 N11155 nand 
XNAND2_1522 N11798 N11740 N11769 nand 
XNAND2_1523 N11801 N11334 N11773 nand 
XNAND2_1524 N11802 N11742 N1290 nand 
XNAND2_1526 N11808 N11748 N11218 nand 
XNAND2_1527 N11809 N11612 N11783 nand 
XNAND2_1528 N11810 N11615 N11786 nand 
XNAND2_1529 N11812 N11791 N11762 nand 
XNAND2_1530 N11815 N11792 N11764 nand 
XNAND2_1532 N11821 N11777 N11490 nand 
XNAND2_1534 N11823 N11774 N11491 nand 
XNAND2_1536 N11825 N1962 N11796 nand 
XNAND2_1537 N11826 N11788 N11409 nand 
XNAND2_1539 N11830 N11772 N11801 nand 
XNAND2_1540 N11837 N1959 N11807 nand 
XNAND2_1541 N11838 N11809 N11784 nand 
XNAND2_1542 N11841 N11810 N11787 nand 
XNAND2_1543 N11848 N11419 N11822 nand 
XNAND2_1544 N11849 N11416 N11824 nand 
XNAND2_1545 N11850 N11795 N11825 nand 
XNAND2_1546 N11852 N11319 N11827 nand 
XNAND2_1547 N11855 N11815 N11707 nand 
XNAND2_1550 N11858 N11798 N1290 nand 
XNAND2_1552 N11865 N11812 N11728 nand 
XNAND2_1556 N11875 N11808 N11837 nand 
XNAND2_1557 N11878 N11821 N11848 nand 
XNAND2_1558 N11879 N11823 N11849 nand 
XNAND2_1559 N11882 N11841 N11768 nand 
XNAND2_1561 N11884 N11826 N11852 nand 
XNAND2_1562 N11885 N11643 N11856 nand 
XNAND2_1563 N11889 N11830 N1290 nand 
XNAND2_1565 N11896 N11838 N11785 nand 
XNAND2_1566 N11897 N11640 N11864 nand 
XNAND2_1570 N11911 N11717 N11883 nand 
XNAND2_1572 N11913 N11855 N11885 nand 
XNAND2_1574 N11919 N11872 N1919 nand 
XNAND2_1576 N11921 N11869 N1920 nand 
XNAND2_1579 N11924 N11714 N11895 nand 
XNAND2_1582 N11933 N11865 N11897 nand 
XNAND2_1583 N11936 N11882 N11911 nand 
XNAND2_1586 N11941 N1679 N11920 nand 
XNAND2_1587 N11942 N1676 N11922 nand 
XNAND2_1593 N11961 N11896 N11924 nand 
XNAND2_1596 N11975 N11930 N1917 nand 
XNAND2_1598 N11977 N11927 N1918 nand 
XNAND2_1600 N11979 N11919 N11941 nand 
XNAND2_1601 N11980 N11921 N11942 nand 
XNAND2_1605 N12000 N11944 N11937 nand 
XNAND2_1607 N12003 N11947 N11499 nand 
XNAND2_1608 N12004 N11953 N11350 nand 
XNAND2_1610 N12006 N11950 N11351 nand 
XNAND2_1612 N12008 N1673 N11976 nand 
XNAND2_1613 N12009 N1670 N11978 nand 
XNAND2_1616 N12014 N11958 N11923 nand 
XNAND2_1618 N12016 N11961 N11635 nand 
XNAND2_1621 N12020 N11898 N11999 nand 
XNAND2_1623 N12022 N11987 N11591 nand 
XNAND2_1624 N12023 N11440 N12002 nand 
XNAND2_1625 N12024 N11261 N12005 nand 
XNAND2_1626 N12025 N11258 N12007 nand 
XNAND2_1627 N12026 N11975 N12008 nand 
XNAND2_1628 N12027 N11977 N12009 nand 
XNAND2_1631 N12036 N11875 N12013 nand 
XNAND2_1632 N12037 N11571 N12015 nand 
XNAND2_1633 N12038 N12020 N12000 nand 
XNAND2_1634 N12039 N11534 N12021 nand 
XNAND2_1635 N12040 N12023 N12003 nand 
XNAND2_1636 N12041 N12004 N12024 nand 
XNAND2_1637 N12042 N12006 N12025 nand 
XNAND2_1639 N12052 N12036 N12014 nand 
XNAND2_1640 N12055 N12037 N12016 nand 
XNAND2_1642 N12061 N12039 N12022 nand 
XNAND2_1643 N12062 N12040 N1290 nand 
XNAND2_1649 N12078 N12060 N1290 nand 
XNAND2_1650 N12081 N12061 N1290 nand 
XNAND2_1663 N12214 N12151 N1915 nand 
XNAND2_1665 N12216 N12148 N1916 nand 
XNAND2_1667 N12222 N12199 N11348 nand 
XNAND2_1669 N12224 N12196 N11349 nand 
XNAND2_1671 N12226 N12205 N1913 nand 
XNAND2_1673 N12228 N12202 N1914 nand 
XNAND2_1675 N12230 N1667 N12215 nand 
XNAND2_1676 N12231 N1664 N12217 nand 
XNAND2_1677 N12232 N11255 N12223 nand 
XNAND2_1678 N12233 N11252 N12225 nand 
XNAND2_1679 N12234 N1661 N12227 nand 
XNAND2_1680 N12235 N1658 N12229 nand 
XNAND2_1681 N12236 N12214 N12230 nand 
XNAND2_1682 N12237 N12216 N12231 nand 
XNAND2_1683 N12240 N12222 N12232 nand 
XNAND2_1684 N12241 N12224 N12233 nand 
XNAND2_1685 N12244 N12226 N12234 nand 
XNAND2_1686 N12245 N12228 N12235 nand 
XNAND8_1696 N12279 N12067 N12012 N12047 N12250 N1899 N12256 N12253 N1903 nand 
XNAND5_1710 N12537 N12286 N12315 N12361 N12104 N11171 nand 
XNAND5_1711 N12540 N12286 N12315 N12340 N12129 N11171 nand 
XNAND5_1712 N12543 N12286 N12315 N12340 N12119 N11171 nand 
XNAND5_1713 N12546 N12286 N12315 N12353 N12104 N11171 nand 
XNAND5_1714 N12549 N12297 N12315 N12375 N12119 N11188 nand 
XNAND5_1715 N12552 N12297 N12326 N12361 N12143 N11188 nand 
XNAND5_1716 N12555 N12297 N12326 N12375 N12129 N11188 nand 
XNAND5_1724 N12594 N12286 N12427 N12361 N12129 N11171 nand 
XNAND5_1725 N12597 N12297 N12427 N12361 N12119 N11171 nand 
XNAND5_1726 N12600 N12297 N12427 N12375 N12104 N11171 nand 
XNAND5_1727 N12603 N12297 N12427 N12340 N12143 N11171 nand 
XNAND5_1728 N12606 N12297 N12427 N12353 N12129 N11188 nand 
XNAND5_1729 N12611 N12386 N12326 N12361 N12129 N11188 nand 
XNAND5_1730 N12614 N12386 N12326 N12361 N12119 N11188 nand 
XNAND5_1731 N12617 N12386 N12326 N12375 N12104 N11188 nand 
XNAND5_1732 N12620 N12386 N12326 N12353 N12129 N11188 nand 
XNAND5_1733 N12627 N12297 N12427 N12340 N12104 N1926 nand 
XNAND5_1734 N12628 N12386 N12326 N12340 N12104 N1926 nand 
XNAND5_1735 N12629 N12386 N12427 N12361 N12104 N1926 nand 
XNAND5_1736 N12630 N12386 N12427 N12340 N12129 N1926 nand 
XNAND5_1737 N12631 N12386 N12427 N12340 N12119 N1926 nand 
XNAND5_1738 N12632 N12386 N12427 N12353 N12104 N1926 nand 
XNAND5_1739 N12633 N12386 N12426 N12340 N12104 N1926 nand 
XNAND5_1740 N12634 N12385 N12427 N12340 N12104 N1926 nand 
XNAND2_1750 N12669 N12558 N1534 nand 
XNAND2_1752 N12671 N12561 N1535 nand 
XNAND2_1754 N12673 N12564 N1536 nand 
XNAND2_1756 N12675 N12567 N1537 nand 
XNAND2_1758 N12682 N12570 N1543 nand 
XNAND2_1760 N12688 N12573 N1548 nand 
XNAND2_1762 N12690 N12576 N1549 nand 
XNAND2_1765 N12720 N1343 N12670 nand 
XNAND2_1766 N12721 N1346 N12672 nand 
XNAND2_1767 N12722 N1349 N12674 nand 
XNAND2_1768 N12723 N1352 N12676 nand 
XNAND2_1769 N12724 N12639 N1538 nand 
XNAND2_1771 N12726 N12642 N1539 nand 
XNAND2_1773 N12728 N12645 N1540 nand 
XNAND2_1775 N12730 N12648 N1541 nand 
XNAND2_1777 N12732 N12651 N1542 nand 
XNAND2_1779 N12734 N1370 N12683 nand 
XNAND2_1780 N12735 N12655 N1544 nand 
XNAND2_1782 N12737 N12658 N1545 nand 
XNAND2_1784 N12739 N12661 N1546 nand 
XNAND2_1786 N12741 N12664 N1547 nand 
XNAND2_1788 N12743 N1385 N12689 nand 
XNAND2_1789 N12744 N1388 N12691 nand 
XNAND8_1790 N12745 N12537 N12540 N12543 N12546 N12594 N12597 N12600 N12603 nand 
XNAND8_1791 N12746 N12606 N12549 N12611 N12614 N12617 N12620 N12552 N12555 nand 
XNAND2_1794 N12753 N12669 N12720 nand 
XNAND2_1795 N12754 N12671 N12721 nand 
XNAND2_1796 N12755 N12673 N12722 nand 
XNAND2_1797 N12756 N12675 N12723 nand 
XNAND2_1798 N12757 N1355 N12725 nand 
XNAND2_1799 N12758 N1358 N12727 nand 
XNAND2_1800 N12759 N1361 N12729 nand 
XNAND2_1801 N12760 N1364 N12731 nand 
XNAND2_1802 N12761 N1367 N12733 nand 
XNAND2_1803 N12762 N12682 N12734 nand 
XNAND2_1804 N12763 N1373 N12736 nand 
XNAND2_1805 N12764 N1376 N12738 nand 
XNAND2_1806 N12765 N1379 N12740 nand 
XNAND2_1807 N12766 N1382 N12742 nand 
XNAND2_1808 N12767 N12688 N12743 nand 
XNAND2_1809 N12768 N12690 N12744 nand 
XNAND2_1812 N12779 N12724 N12757 nand 
XNAND2_1813 N12780 N12726 N12758 nand 
XNAND2_1814 N12781 N12728 N12759 nand 
XNAND2_1815 N12782 N12730 N12760 nand 
XNAND2_1816 N12783 N12732 N12761 nand 
XNAND2_1817 N12784 N12735 N12763 nand 
XNAND2_1818 N12785 N12737 N12764 nand 
XNAND2_1819 N12786 N12739 N12765 nand 
XNAND2_1820 N12787 N12741 N12766 nand 
XNAND2_1822 N12789 N12747 N12750 nand 
XNAND2_1824 N12807 N12773 N12018 nand 
XNAND2_1826 N12809 N12776 N12019 nand 
XNAND2_1834 N12827 N11965 N12808 nand 
XNAND2_1835 N12828 N11968 N12810 nand 
XNAND2_1837 N12843 N12807 N12827 nand 
XNAND2_1838 N12846 N12809 N12828 nand 
XNAND2_1839 N12850 N12812 N12076 nand 
XNAND2_1840 N12851 N12815 N12077 nand 
XNAND2_1841 N12852 N12818 N11915 nand 
XNAND2_1842 N12853 N12821 N11857 nand 
XNAND2_1843 N12854 N12824 N11938 nand 
XNAND2_1850 N12863 N12829 N11985 nand 
XNAND2_1851 N12866 N12052 N12857 nand 
XNAND2_1852 N12867 N12055 N12858 nand 
XNAND2_1853 N12868 N11866 N12859 nand 
XNAND2_1854 N12869 N11818 N12860 nand 
XNAND2_1855 N12870 N11902 N12861 nand 
XNAND2_1856 N12871 N12843 N1886 nand 
XNAND2_1858 N12873 N12846 N1887 nand 
XNAND2_1860 N12875 N11933 N12862 nand 
XNAND2_1861 N12876 N12866 N12850 nand 
XNAND2_1862 N12877 N12867 N12851 nand 
XNAND2_1863 N12878 N12868 N12852 nand 
XNAND2_1864 N12879 N12869 N12853 nand 
XNAND2_1865 N12880 N12870 N12854 nand 
XNAND2_1866 N12881 N1682 N12872 nand 
XNAND2_1867 N12882 N1685 N12874 nand 
XNAND2_1868 N12883 N12875 N12863 nand 
XNAND2_1874 N12891 N12871 N12881 nand 
XNAND2_1875 N12892 N12873 N12882 nand 
XNAND2_1876 N12895 N12883 N11461 nand 
XNAND2_1878 N12897 N11383 N12896 nand 
XNAND2_1879 N12898 N12895 N12897 nand 
XNAND2_217 N2251 N263 N288 nand 
XNAND2_218 N2252 N266 N291 nand 
XNAND2_275 N2550 N2306 N2331 nand 
XNAND2_276 N2551 N2306 N2331 nand 
XNAND2_277 N2552 N2306 N2331 nand 
XNAND2_278 N2553 N2306 N2331 nand 
XNAND2_279 N2554 N2306 N2331 nand 
XNAND2_280 N2555 N2306 N2331 nand 
XNAND2_296 N2601 N2326 N2277 nand 
XNAND2_297 N2602 N2326 N2280 nand 
XNAND2_298 N2603 N2260 N272 nand 
XNAND2_299 N2608 N2260 N2300 nand 
XNAND2_2100 N2612 N2256 N2300 nand 
XNAND2_2160 N2899 N253 N2612 nand 
XNAND2_2161 N2903 N260 N2608 nand 
XNAND2_2162 N2907 N249 N2612 nand 
XNAND2_2163 N2910 N256 N2608 nand 
XNAND4_2172 N2921 N2277 N2297 N2326 N2603 nand 
XNAND4_2173 N2922 N2280 N2297 N2326 N2603 nand 
XNAND3_2174 N2923 N2303 N2338 N2603 nand 
XNAND2_2233 N21054 N2619 N2888 nand 
XNAND2_2234 N21055 N2616 N2889 nand 
XNAND2_2235 N21063 N2625 N2890 nand 
XNAND2_2236 N21064 N2622 N2891 nand 
XNAND2_2237 N21067 N2655 N2895 nand 
XNAND2_2238 N21068 N2652 N2896 nand 
XNAND2_2239 N21119 N2721 N2988 nand 
XNAND2_2240 N21120 N2718 N2989 nand 
XNAND2_2241 N21121 N2727 N2991 nand 
XNAND2_2242 N21122 N2724 N2992 nand 
XNAND2_2243 N21128 N2739 N21002 nand 
XNAND2_2244 N21129 N2736 N21003 nand 
XNAND2_2245 N21130 N2745 N21005 nand 
XNAND2_2246 N21131 N2742 N21006 nand 
XNAND2_2247 N21132 N2751 N21008 nand 
XNAND2_2248 N21133 N2748 N21009 nand 
XNAND2_2251 N21150 N21054 N21055 nand 
XNAND2_2259 N21158 N21063 N21064 nand 
XNAND2_2261 N21160 N2985 N2892 nand 
XNAND2_2263 N21162 N21067 N21068 nand 
XNAND2_2268 N21171 N2921 N2923 nand 
XNAND2_2269 N21188 N2922 N2923 nand 
XNAND2_2271 N21206 N21010 N2938 nand 
XNAND2_2273 N21208 N21013 N2942 nand 
XNAND2_2275 N21210 N21016 N2946 nand 
XNAND2_2277 N21212 N21019 N2950 nand 
XNAND2_2279 N21214 N21022 N2954 nand 
XNAND2_2281 N21216 N21025 N2958 nand 
XNAND2_2286 N21221 N21034 N2968 nand 
XNAND2_2289 N21224 N21037 N2972 nand 
XNAND2_2291 N21226 N21040 N2976 nand 
XNAND2_2294 N21229 N21043 N2980 nand 
XNAND2_2296 N21231 N2981 N2984 nand 
XNAND2_2297 N21232 N21119 N21120 nand 
XNAND2_2298 N21235 N21121 N21122 nand 
XNAND2_2300 N21239 N21046 N2997 nand 
XNAND2_2303 N21242 N21049 N21001 nand 
XNAND2_2304 N21243 N21128 N21129 nand 
XNAND2_2305 N21246 N21130 N21131 nand 
XNAND2_2306 N21249 N21132 N21133 nand 
XNAND2_2312 N21267 N2631 N21159 nand 
XNAND2_2313 N21309 N2688 N21205 nand 
XNAND2_2314 N21310 N2691 N21207 nand 
XNAND2_2315 N21311 N2694 N21209 nand 
XNAND2_2316 N21312 N2697 N21211 nand 
XNAND2_2317 N21313 N2700 N21213 nand 
XNAND2_2318 N21314 N2703 N21215 nand 
XNAND2_2319 N21315 N2706 N21220 nand 
XNAND2_2320 N21316 N2709 N21223 nand 
XNAND2_2321 N21317 N2712 N21225 nand 
XNAND2_2322 N21318 N2715 N21228 nand 
XNAND2_2324 N21322 N2628 N21230 nand 
XNAND2_2325 N21327 N2730 N21238 nand 
XNAND2_2326 N21328 N2733 N21241 nand 
XNAND2_2328 N21344 N21267 N21160 nand 
XNAND2_2329 N21345 N21249 N2894 nand 
XNAND2_2335 N21352 N21309 N21206 nand 
XNAND2_2336 N21355 N21310 N21208 nand 
XNAND2_2337 N21358 N21311 N21210 nand 
XNAND2_2338 N21361 N21312 N21212 nand 
XNAND2_2339 N21364 N21313 N21214 nand 
XNAND2_2340 N21367 N21314 N21216 nand 
XNAND2_2341 N21370 N21315 N21221 nand 
XNAND2_2342 N21373 N21316 N21224 nand 
XNAND2_2343 N21376 N21317 N21226 nand 
XNAND2_2344 N21379 N21318 N21229 nand 
XNAND2_2345 N21383 N21322 N21231 nand 
XNAND2_2347 N21387 N21232 N2990 nand 
XNAND2_2349 N21389 N21235 N2993 nand 
XNAND2_2350 N21390 N21327 N21239 nand 
XNAND2_2351 N21393 N21328 N21242 nand 
XNAND2_2353 N21397 N21243 N21004 nand 
XNAND2_2355 N21399 N21246 N21007 nand 
XNAND2_2357 N21412 N2649 N21346 nand 
XNAND2_2361 N21433 N2634 N21386 nand 
XNAND2_2362 N21434 N2637 N21388 nand 
XNAND2_2363 N21438 N2640 N21396 nand 
XNAND2_2364 N21439 N2646 N21398 nand 
XNAND2_2366 N21443 N21355 N21148 nand 
XNAND2_2368 N21445 N21352 N21149 nand 
XNAND2_2370 N21447 N21358 N21151 nand 
XNAND2_2372 N21451 N21361 N21152 nand 
XNAND2_2374 N21453 N21367 N21153 nand 
XNAND2_2376 N21455 N21364 N21154 nand 
XNAND2_2378 N21457 N21373 N21156 nand 
XNAND2_2380 N21459 N21379 N21157 nand 
XNAND2_2383 N21462 N21393 N21161 nand 
XNAND2_2385 N21464 N21345 N21412 nand 
XNAND2_2387 N21469 N21370 N21222 nand 
XNAND2_2389 N21471 N21376 N21227 nand 
XNAND2_2390 N21472 N21387 N21433 nand 
XNAND2_2392 N21476 N21390 N21240 nand 
XNAND2_2393 N21478 N21389 N21434 nand 
XNAND2_2394 N21481 N21399 N21439 nand 
XNAND2_2395 N21484 N21397 N21438 nand 
XNAND2_2396 N21487 N2939 N21444 nand 
XNAND2_2397 N21488 N2935 N21446 nand 
XNAND2_2398 N21489 N2943 N21448 nand 
XNAND2_2401 N21492 N2947 N21452 nand 
XNAND2_2402 N21493 N2955 N21454 nand 
XNAND2_2403 N21494 N2951 N21456 nand 
XNAND2_2404 N21495 N2969 N21458 nand 
XNAND2_2405 N21496 N2977 N21460 nand 
XNAND2_2406 N21498 N2998 N21463 nand 
XNAND2_2408 N21500 N2965 N21468 nand 
XNAND2_2409 N21501 N2973 N21470 nand 
XNAND2_2410 N21504 N2994 N21475 nand 
XNAND2_2412 N21513 N21443 N21487 nand 
XNAND2_2413 N21514 N21445 N21488 nand 
XNAND2_2414 N21517 N21447 N21489 nand 
XNAND2_2415 N21520 N21451 N21492 nand 
XNAND2_2416 N21521 N21453 N21493 nand 
XNAND2_2417 N21522 N21455 N21494 nand 
XNAND2_2418 N21526 N21457 N21495 nand 
XNAND2_2419 N21527 N21459 N21496 nand 
XNAND2_2421 N21529 N21462 N21498 nand 
XNAND2_2425 N21534 N21471 N21501 nand 
XNAND2_2426 N21537 N21469 N21500 nand 
XNAND2_2427 N21540 N21476 N21504 nand 
XNAND2_2432 N21567 N21484 N21531 nand 
XNAND2_2433 N21568 N21481 N21532 nand 
XNAND2_2440 N21594 N21540 N21530 nand 
XNAND2_2442 N21596 N21567 N21568 nand 
XNAND2_2452 N21636 N21478 N21595 nand 
XNAND2_2453 N21638 N21576 N21569 nand 
XNAND2_2462 N21671 N21596 N2893 nand 
XNAND2_2466 N21678 N21606 N21217 nand 
XNAND2_2468 N21680 N21609 N21219 nand 
XNAND2_2472 N21685 N21594 N21636 nand 
XNAND2_2473 N21688 N21510 N21639 nand 
XNAND2_2476 N21706 N2643 N21672 nand 
XNAND2_2478 N21708 N21647 N21675 nand 
XNAND2_2480 N21710 N21651 N21677 nand 
XNAND2_2482 N21712 N21028 N21679 nand 
XNAND2_2483 N21713 N21031 N21681 nand 
XNAND2_2486 N21720 N21658 N21593 nand 
XNAND2_2488 N21723 N21638 N21688 nand 
XNAND2_2494 N21740 N21685 N21528 nand 
XNAND2_2496 N21742 N21671 N21706 nand 
XNAND2_2497 N21746 N21600 N21709 nand 
XNAND2_2498 N21747 N21603 N21711 nand 
XNAND2_2499 N21748 N21678 N21712 nand 
XNAND2_2500 N21751 N21680 N21713 nand 
XNAND2_2501 N21759 N21537 N21721 nand 
XNAND2_2503 N21762 N21697 N21727 nand 
XNAND2_2505 N21764 N21701 N21730 nand 
XNAND2_2507 N21769 N21472 N21741 nand 
XNAND2_2508 N21772 N21723 N21413 nand 
XNAND2_2510 N21774 N21708 N21746 nand 
XNAND2_2511 N21777 N21710 N21747 nand 
XNAND2_2513 N21784 N21731 N21682 nand 
XNAND2_2516 N21787 N21734 N21683 nand 
XNAND2_2517 N21788 N21720 N21759 nand 
XNAND2_2518 N21791 N21661 N21761 nand 
XNAND2_2519 N21792 N21664 N21763 nand 
XNAND2_2520 N21795 N21751 N21155 nand 
XNAND2_2522 N21798 N21740 N21769 nand 
XNAND2_2523 N21801 N21334 N21773 nand 
XNAND2_2524 N21802 N21742 N2290 nand 
XNAND2_2526 N21808 N21748 N21218 nand 
XNAND2_2527 N21809 N21612 N21783 nand 
XNAND2_2528 N21810 N21615 N21786 nand 
XNAND2_2529 N21812 N21791 N21762 nand 
XNAND2_2530 N21815 N21792 N21764 nand 
XNAND2_2532 N21821 N21777 N21490 nand 
XNAND2_2534 N21823 N21774 N21491 nand 
XNAND2_2536 N21825 N2962 N21796 nand 
XNAND2_2537 N21826 N21788 N21409 nand 
XNAND2_2539 N21830 N21772 N21801 nand 
XNAND2_2540 N21837 N2959 N21807 nand 
XNAND2_2541 N21838 N21809 N21784 nand 
XNAND2_2542 N21841 N21810 N21787 nand 
XNAND2_2543 N21848 N21419 N21822 nand 
XNAND2_2544 N21849 N21416 N21824 nand 
XNAND2_2545 N21850 N21795 N21825 nand 
XNAND2_2546 N21852 N21319 N21827 nand 
XNAND2_2547 N21855 N21815 N21707 nand 
XNAND2_2550 N21858 N21798 N2290 nand 
XNAND2_2552 N21865 N21812 N21728 nand 
XNAND2_2556 N21875 N21808 N21837 nand 
XNAND2_2557 N21878 N21821 N21848 nand 
XNAND2_2558 N21879 N21823 N21849 nand 
XNAND2_2559 N21882 N21841 N21768 nand 
XNAND2_2561 N21884 N21826 N21852 nand 
XNAND2_2562 N21885 N21643 N21856 nand 
XNAND2_2563 N21889 N21830 N2290 nand 
XNAND2_2565 N21896 N21838 N21785 nand 
XNAND2_2566 N21897 N21640 N21864 nand 
XNAND2_2570 N21911 N21717 N21883 nand 
XNAND2_2572 N21913 N21855 N21885 nand 
XNAND2_2574 N21919 N21872 N2919 nand 
XNAND2_2576 N21921 N21869 N2920 nand 
XNAND2_2579 N21924 N21714 N21895 nand 
XNAND2_2582 N21933 N21865 N21897 nand 
XNAND2_2583 N21936 N21882 N21911 nand 
XNAND2_2586 N21941 N2679 N21920 nand 
XNAND2_2587 N21942 N2676 N21922 nand 
XNAND2_2593 N21961 N21896 N21924 nand 
XNAND2_2596 N21975 N21930 N2917 nand 