$ Spice netlist generated by v2lvs
$ v2013.3_28.19    Tue Sep 3 16:44:15 PDT 2013

.SUBCKT c2670 N1 N2 N3 N4 N5 N6 N7 N8 N11 N14 N15 N16 N19 N20 N21 N22 N23 N24 
+ N25 N26 N27 N28 N29 N32 N33 N34 N35 N36 N37 N40 N43 N44 N47 N48 N49 N50 N51 
+ N52 N53 N54 N55 N56 N57 N60 N61 N62 N63 N64 N65 N66 N67 N68 N69 N72 N73 N74 
+ N75 N76 N77 N78 N79 N80 N81 N82 N85 N86 N87 N88 N89 N90 N91 N92 N93 N94 N95 
+ N96 N99 N100 N101 N102 N103 N104 N105 N106 N107 N108 N111 N112 N113 N114 N115 
+ N116 N117 N118 N119 N120 N123 N124 N125 N126 N127 N128 N129 N130 N131 N132 
+ N135 N136 N137 N138 N139 N140 N141 N142 N219 N224 N227 N230 N231 N234 N237 
+ N241 N246 N253 N256 N259 N262 N263 N266 N269 N272 N275 N278 N281 N284 N287 
+ N290 N294 N297 N301 N305 N309 N313 N316 N319 N322 N325 N328 N331 N334 N337 
+ N340 N343 N346 N349 N352 N355 N143_I N144_I N145_I N146_I N147_I N148_I 
+ N149_I N150_I N151_I N152_I N153_I N154_I N155_I N156_I N157_I N158_I N159_I 
+ N160_I N161_I N162_I N163_I N164_I N165_I N166_I N167_I N168_I N169_I N170_I 
+ N171_I N172_I N173_I N174_I N175_I N176_I N177_I N178_I N179_I N180_I N181_I 
+ N182_I N183_I N184_I N185_I N186_I N187_I N188_I N189_I N190_I N191_I N192_I 
+ N193_I N194_I N195_I N196_I N197_I N198_I N199_I N200_I N201_I N202_I N203_I 
+ N204_I N205_I N206_I N207_I N208_I N209_I N210_I N211_I N212_I N213_I N214_I 
+ N215_I N216_I N217_I N218_I N398 N400 N401 N419 N420 N456 N457 N458 N487 N488 
+ N489 N490 N491 N492 N493 N494 N792 N799 N805 N1026 N1028 N1029 N1269 N1277 
+ N1448 N1726 N1816 N1817 N1818 N1819 N1820 N1821 N1969 N1970 N1971 N2010 N2012 
+ N2014 N2016 N2018 N2020 N2022 N2387 N2388 N2389 N2390 N2496 N2643 N2644 N2891 
+ N2925 N2970 N2971 N3038 N3079 N3546 N3671 N3803 N3804 N3809 N3851 N3875 N3881 
+ N3882 N143_O N144_O N145_O N146_O N147_O N148_O N149_O N150_O N151_O N152_O 
+ N153_O N154_O N155_O N156_O N157_O N158_O N159_O N160_O N161_O N162_O N163_O 
+ N164_O N165_O N166_O N167_O N168_O N169_O N170_O N171_O N172_O N173_O N174_O 
+ N175_O N176_O N177_O N178_O N179_O N180_O N181_O N182_O N183_O N184_O N185_O 
+ N186_O N187_O N188_O N189_O N190_O N191_O N192_O N193_O N194_O N195_O N196_O 
+ N197_O N198_O N199_O N200_O N201_O N202_O N203_O N204_O N205_O N206_O N207_O 
+ N208_O N209_O N210_O N211_O N212_O N213_O N214_O N215_O N216_O N217_O N218_O 
XAND2_4 N405 N1 N3 and 
XAND4_12 N485 N309 N305 N301 N297 and 
XAND3_22 N495 N2 N15 N237 and 
XAND2_24 N499 N37 N37 and 
XAND2_32 N543 N11 N246 and 
XAND4_33 N544 N132 N82 N96 N44 and 
XAND4_34 N547 N120 N57 N108 N69 and 
XAND2_53 N651 N7 N237 and 
XAND2_104 N1026 N94 N500 and 
XAND2_105 N1027 N325 N651 and 
XAND2_110 N1034 N547 N544 and 
XAND3_114 N1064 N80 N509 N521 and 
XAND3_115 N1065 N68 N509 N521 and 
XAND3_116 N1066 N79 N509 N521 and 
XAND3_117 N1067 N78 N509 N521 and 
XAND3_118 N1068 N77 N509 N521 and 
XAND2_119 N1069 N11 N537 and 
XAND3_123 N1097 N76 N550 N562 and 
XAND3_124 N1098 N75 N550 N562 and 
XAND3_125 N1099 N74 N550 N562 and 
XAND3_126 N1100 N73 N550 N562 and 
XAND3_127 N1101 N72 N550 N562 and 
XAND3_130 N1124 N114 N582 N594 and 
XAND3_131 N1125 N113 N582 N594 and 
XAND3_132 N1126 N112 N582 N594 and 
XAND3_133 N1127 N111 N582 N594 and 
XAND2_134 N1128 N582 N594 and 
XAND3_146 N1168 N118 N613 N625 and 
XAND3_147 N1169 N107 N613 N625 and 
XAND3_148 N1170 N117 N613 N625 and 
XAND3_149 N1171 N116 N613 N625 and 
XAND3_150 N1172 N115 N613 N625 and 
XAND2_189 N1275 N325 N1032 and 
XAND2_190 N1276 N231 N1033 and 
XAND3_214 N1451 N93 N1042 N1053 and 
XAND3_215 N1452 N55 N509 N1053 and 
XAND3_216 N1453 N67 N1042 N521 and 
XAND3_217 N1454 N81 N1042 N1053 and 
XAND3_218 N1455 N43 N509 N1053 and 
XAND3_219 N1456 N56 N1042 N521 and 
XAND3_220 N1457 N92 N1042 N1053 and 
XAND3_221 N1458 N54 N509 N1053 and 
XAND3_222 N1459 N66 N1042 N521 and 
XAND3_223 N1460 N91 N1042 N1053 and 
XAND3_224 N1461 N53 N509 N1053 and 
XAND3_225 N1462 N65 N1042 N521 and 
XAND3_226 N1463 N90 N1042 N1053 and 
XAND3_227 N1464 N52 N509 N1053 and 
XAND3_228 N1465 N64 N1042 N521 and 
XAND3_229 N1466 N89 N1075 N1086 and 
XAND3_230 N1467 N51 N550 N1086 and 
XAND3_231 N1468 N63 N1075 N562 and 
XAND3_232 N1469 N88 N1075 N1086 and 
XAND3_233 N1470 N50 N550 N1086 and 
XAND3_234 N1471 N62 N1075 N562 and 
XAND3_235 N1472 N87 N1075 N1086 and 
XAND3_236 N1473 N49 N550 N1086 and 
XAND2_237 N1474 N1075 N562 and 
XAND3_238 N1475 N86 N1075 N1086 and 
XAND3_239 N1476 N48 N550 N1086 and 
XAND3_240 N1477 N61 N1075 N562 and 
XAND3_241 N1478 N85 N1075 N1086 and 
XAND3_242 N1479 N47 N550 N1086 and 
XAND3_243 N1480 N60 N1075 N562 and 
XAND3_244 N1481 N138 N1102 N1113 and 
XAND3_245 N1482 N102 N582 N1113 and 
XAND3_246 N1483 N126 N1102 N594 and 
XAND3_247 N1484 N137 N1102 N1113 and 
XAND3_248 N1485 N101 N582 N1113 and 
XAND3_249 N1486 N125 N1102 N594 and 
XAND3_250 N1487 N136 N1102 N1113 and 
XAND3_251 N1488 N100 N582 N1113 and 
XAND3_252 N1489 N124 N1102 N594 and 
XAND3_253 N1490 N135 N1102 N1113 and 
XAND3_254 N1491 N99 N582 N1113 and 
XAND3_255 N1492 N123 N1102 N594 and 
XAND2_256 N1493 N1102 N1113 and 
XAND2_257 N1494 N582 N1113 and 
XAND2_258 N1495 N1102 N594 and 
XAND3_276 N1529 N142 N1146 N1157 and 
XAND3_277 N1530 N106 N613 N1157 and 
XAND3_278 N1531 N130 N1146 N625 and 
XAND3_279 N1532 N131 N1146 N1157 and 
XAND3_280 N1533 N95 N613 N1157 and 
XAND3_281 N1534 N119 N1146 N625 and 
XAND3_282 N1535 N141 N1146 N1157 and 
XAND3_283 N1536 N105 N613 N1157 and 
XAND3_284 N1537 N129 N1146 N625 and 
XAND3_285 N1538 N140 N1146 N1157 and 
XAND3_286 N1539 N104 N613 N1157 and 
XAND3_287 N1540 N128 N1146 N625 and 
XAND3_288 N1541 N139 N1146 N1157 and 
XAND3_289 N1542 N103 N613 N1157 and 
XAND3_290 N1543 N127 N1146 N625 and 
XAND2_291 N1544 N19 N1173 and 
XAND2_292 N1545 N4 N1173 and 
XAND2_293 N1546 N20 N1173 and 
XAND2_294 N1547 N5 N1173 and 
XAND2_295 N1548 N21 N1178 and 
XAND2_296 N1549 N22 N1178 and 
XAND2_297 N1550 N23 N1178 and 
XAND2_298 N1551 N6 N1178 and 
XAND2_299 N1552 N24 N1178 and 
XAND2_303 N1564 N25 N1200 and 
XAND2_304 N1565 N32 N1200 and 
XAND2_305 N1566 N26 N1200 and 
XAND2_306 N1567 N33 N1200 and 
XAND2_307 N1568 N27 N1205 and 
XAND2_308 N1569 N34 N1205 and 
XAND2_309 N1570 N35 N1205 and 
XAND2_310 N1571 N28 N1205 and 
XAND2_322 N1591 N1449 N1450 and 
XAND3_350 N1784 N1133 N1129 N1513 and 
XAND3_351 N1785 N1499 N1496 N1516 and 
XAND2_361 N1813 N1596 N241 and 
XAND2_362 N1814 N1606 N241 and 
XAND2_363 N1815 N1600 N241 and 
XAND4_370 N1822 N496 N224 N36 N1591 and 
XAND4_371 N1823 N496 N224 N1591 N486 and 
XAND2_374 N1830 N1600 N537 and 
XAND2_375 N1831 N1606 N537 and 
XAND2_376 N1832 N1619 N246 and 
XAND2_390 N1894 N1637 N425 and 
XAND3_392 N1908 N1496 N1133 N1776 and 
XAND3_393 N1909 N1129 N1499 N1777 and 
XAND2_394 N1910 N1600 N637 and 
XAND2_395 N1911 N1606 N637 and 
XAND2_396 N1912 N1612 N637 and 
XAND2_397 N1913 N1615 N637 and 
XAND2_398 N1914 N1619 N643 and 
XAND2_399 N1915 N1624 N643 and 
XAND2_400 N1916 N1628 N643 and 
XAND2_401 N1917 N1631 N643 and 
XAND2_402 N1918 N1634 N643 and 
XAND2_404 N1928 N1676 N693 and 
XAND2_405 N1929 N1681 N693 and 
XAND2_406 N1930 N1686 N693 and 
XAND2_407 N1931 N1690 N693 and 
XAND2_408 N1932 N1637 N699 and 
XAND2_409 N1933 N1642 N699 and 
XAND2_410 N1934 N1647 N699 and 
XAND2_411 N1935 N1651 N699 and 
XAND3_439 N2032 N1506 N1502 N1778 and 
XAND3_440 N2033 N1773 N1770 N1781 and 
XAND3_444 N2042 N1557 N1553 N1801 and 
XAND3_445 N2043 N1798 N1795 N1804 and 
XAND3_464 N2113 N1897 N1894 N40 and 
XAND2_467 N2125 N1824 N537 and 
XAND2_468 N2126 N1852 N246 and 
XAND2_469 N2127 N1848 N537 and 
XAND2_476 N2153 N727 N1885 and 
XAND2_477 N2154 N1885 N1651 and 
XAND2_478 N2155 N730 N1888 and 
XAND2_479 N2156 N1888 N1656 and 
XAND3_480 N2157 N1770 N1506 N2028 and 
XAND3_481 N2158 N1502 N1773 N2029 and 
XAND3_488 N2177 N1795 N1557 N2040 and 
XAND3_489 N2178 N1553 N1798 N2041 and 
XAND3_507 N2250 N40 N1897 N2119 and 
XAND2_559 N2358 N2120 N533 and 
XAND2_573 N2386 N2120 N246 and 
XAND2_653 N2607 N1880 N2377 and 
XAND2_654 N2608 N1676 N2377 and 
XAND2_655 N2609 N1681 N2377 and 
XAND2_656 N2610 N1891 N2377 and 
XAND2_657 N2611 N1856 N2382 and 
XAND2_658 N2612 N1863 N2382 and 
XAND2_669 N2631 N1856 N2391 and 
XAND2_670 N2632 N1863 N2391 and 
XAND2_671 N2633 N1880 N2395 and 
XAND2_672 N2634 N1676 N2395 and 
XAND2_673 N2635 N1681 N2395 and 
XAND2_674 N2636 N1891 N2395 and 
XAND2_720 N2709 N2294 N2534 and 
XAND2_721 N2710 N2291 N2531 and 
XAND5_729 N2748 N2665 N2666 N2667 N2668 N2669 and 
XAND5_730 N2749 N2670 N2671 N2672 N2673 N2674 and 
XAND2_731 N2750 N2034 N2675 and 
XAND5_732 N2751 N2676 N2677 N2678 N2679 N2680 and 
XAND2_748 N2789 N1856 N2638 and 
XAND2_749 N2790 N1863 N2638 and 
XAND2_750 N2791 N1870 N2638 and 
XAND2_751 N2792 N1875 N2638 and 
XAND2_757 N2809 N1856 N2646 and 
XAND2_758 N2810 N1863 N2646 and 
XAND2_759 N2811 N1870 N2646 and 
XAND2_760 N2812 N1875 N2646 and 
XAND2_761 N2817 N2743 N14 and 
XAND2_764 N2829 N2748 N2749 and 
XAND2_765 N2830 N2750 N2751 and 
XAND3_769 N2839 N2421 N2417 N2687 and 
XAND3_770 N2840 N2684 N2681 N2690 and 
XAND2_784 N2894 N2607 N2729 and 
XAND2_785 N2895 N2608 N2729 and 
XAND2_786 N2896 N2609 N2729 and 
XAND2_787 N2897 N2610 N2729 and 
XAND2_790 N2900 N2791 N1037 and 
XAND2_791 N2901 N2792 N1037 and 
XAND2_794 N2916 N2811 N1070 and 
XAND2_795 N2917 N2812 N1070 and 
XAND2_796 N2918 N2633 N2738 and 
XAND2_797 N2919 N2634 N2738 and 
XAND2_798 N2920 N2635 N2738 and 
XAND2_799 N2921 N2636 N2738 and 
XAND3_801 N2931 N2829 N2830 N1302 and 
XAND3_802 N2938 N2681 N2421 N2837 and 
XAND3_803 N2939 N2417 N2684 N2838 and 
XAND2_811 N2984 N2898 N1037 and 
XAND2_812 N2985 N2899 N1037 and 
XAND2_820 N3007 N574 N2820 and 
XAND2_821 N3008 N2914 N1070 and 
XAND2_822 N3009 N2915 N1070 and 
XAND2_830 N3029 N574 N2831 and 
XAND2_832 N3035 N578 N2820 and 
XAND2_833 N3036 N655 N2820 and 
XAND2_834 N3037 N659 N2820 and 
XAND2_837 N3044 N578 N2831 and 
XAND2_838 N3045 N655 N2831 and 
XAND2_839 N3046 N659 N2831 and 
XAND2_844 N3053 N663 N2844 and 
XAND2_845 N3054 N667 N2844 and 
XAND2_846 N3055 N671 N2844 and 
XAND2_847 N3056 N675 N2844 and 
XAND2_848 N3057 N679 N2854 and 
XAND2_849 N3058 N683 N2854 and 
XAND2_850 N3059 N687 N2854 and 
XAND2_851 N3060 N705 N2854 and 
XAND2_853 N3064 N663 N2859 and 
XAND2_854 N3065 N667 N2859 and 
XAND2_855 N3066 N671 N2859 and 
XAND2_856 N3067 N675 N2859 and 
XAND2_857 N3068 N679 N2869 and 
XAND2_858 N3069 N683 N2869 and 
XAND2_859 N3070 N687 N2869 and 
XAND2_860 N3071 N705 N2869 and 
XAND2_871 N3137 N3055 N1190 and 
XAND2_872 N3140 N3056 N1190 and 
XAND2_873 N3143 N3057 N2761 and 
XAND2_874 N3146 N3058 N2761 and 
XAND2_875 N3149 N3059 N2761 and 
XAND2_876 N3152 N3060 N2761 and 
XAND2_877 N3157 N3066 N1195 and 
XAND2_878 N3160 N3067 N1195 and 
XAND2_879 N3163 N3068 N2766 and 
XAND2_880 N3166 N3069 N2766 and 
XAND2_881 N3169 N3070 N2766 and 
XAND2_882 N3172 N3071 N2766 and 
XAND3_892 N3191 N2796 N2613 N2995 and 
XAND3_893 N3192 N2992 N2793 N2998 and 
XAND3_894 N3193 N2624 N2368 N3001 and 
XAND3_895 N3194 N2803 N2621 N3004 and 
XAND2_898 N3197 N687 N3030 and 
XAND2_899 N3208 N687 N3039 and 
XAND2_900 N3215 N705 N3030 and 
XAND2_901 N3216 N711 N3030 and 
XAND2_902 N3217 N715 N3030 and 
XAND2_903 N3218 N705 N3039 and 
XAND2_904 N3219 N711 N3039 and 
XAND2_905 N3220 N715 N3039 and 
XAND2_906 N3222 N719 N3050 and 
XAND2_907 N3223 N723 N3050 and 
XAND2_908 N3230 N719 N3061 and 
XAND2_909 N3231 N723 N3061 and 
XAND3_924 N3281 N2793 N2796 N3187 and 
XAND3_925 N3282 N2613 N2992 N3188 and 
XAND3_926 N3283 N2621 N2624 N3189 and 
XAND3_927 N3284 N2368 N2803 N3190 and 
XAND2_931 N3291 N3152 N2981 and 
XAND2_932 N3293 N3149 N2978 and 
XAND2_933 N3295 N3146 N2975 and 
XAND2_934 N3296 N2972 N3143 and 
XAND2_935 N3299 N3140 N2989 and 
XAND2_936 N3301 N3137 N2986 and 
XAND2_938 N3304 N3172 N3025 and 
XAND2_939 N3306 N3169 N3022 and 
XAND2_940 N3308 N3166 N3019 and 
XAND2_941 N3309 N3016 N3163 and 
XAND2_942 N3312 N3160 N3013 and 
XAND2_943 N3314 N3157 N3010 and 
XAND2_978 N3409 N3288 N1836 and 
XAND2_986 N3428 N3302 N1836 and 
XAND2_993 N3450 N3334 N1190 and 
XAND2_994 N3453 N3335 N1190 and 
XAND2_995 N3456 N3336 N1195 and 
XAND2_996 N3459 N3337 N1195 and 
XAND2_997 N3478 N3400 N533 and 
XAND2_998 N3479 N3318 N2128 and 
XAND2_999 N3480 N3315 N1841 and 
XAND2_1015 N3498 N3321 N2135 and 
XAND2_1016 N3499 N3327 N2128 and 
XAND2_1017 N3500 N3324 N1841 and 
XAND2_1032 N3517 N3330 N2135 and 
XAND2_1049 N3558 N3453 N3091 and 
XAND2_1050 N3559 N3450 N3088 and 
XAND2_1057 N3569 N3459 N3113 and 
XAND2_1058 N3570 N3456 N3110 and 
XAND2_1071 N3600 N3551 N800 and 
XAND4_1117 N3731 N3608 N3615 N3612 N3603 and 
XAND2_1118 N3732 N3603 N3293 and 
XAND3_1119 N3733 N3608 N3603 N3295 and 
XAND4_1120 N3734 N3612 N3603 N3296 N3608 and 
XAND2_1121 N3735 N3616 N3301 and 
XAND3_1122 N3736 N3622 N3616 N3558 and 
XAND4_1128 N3744 N3640 N3647 N3644 N3635 and 
XAND2_1129 N3745 N3635 N3306 and 
XAND3_1130 N3746 N3640 N3635 N3308 and 
XAND4_1131 N3747 N3644 N3635 N3309 N3640 and 
XAND2_1132 N3748 N3648 N3314 and 
XAND3_1133 N3749 N3654 N3648 N3569 and 
XAND2_1135 N3753 N3722 N246 and 
XAND2_1144 N3778 N3723 N3480 and 
XAND3_1145 N3779 N3726 N3723 N3409 and 
XAND2_1147 N3790 N3750 N800 and 
XAND2_1148 N3793 N3737 N3500 and 
XAND3_1149 N3794 N3740 N3737 N3428 and 
XAND5_1154 N3806 N3622 N3730 N3754 N3616 N3758 and 
XAND4_1155 N3807 N3754 N3616 N3559 N3622 and 
XAND5_1156 N3808 N3758 N3754 N3616 N3498 N3622 and 
XAND5_1160 N3813 N3654 N3743 N3767 N3648 N3771 and 
XAND4_1161 N3814 N3767 N3648 N3570 N3654 and 
XAND5_1162 N3815 N3771 N3767 N3648 N3517 N3654 and 
XAND2_1164 N3817 N3806 N3802 and 
XAND2_1168 N3821 N3813 N3811 and 
XAND3_1171 N3826 N3727 N3819 N2841 and 
XAND2_1174 N3835 N3818 N3823 and 
XAND2_1176 N3837 N3822 N3827 and 
XAND2_1177 N3838 N3762 N3834 and 
XAND2_1178 N3839 N3775 N3836 and 
XAND2_1183 N3857 N3843 N3852 and 
XAND2_1184 N3858 N3852 N3840 and 
XAND2_1187 N3869 N3859 N3864 and 
XAND3_1190 N3876 N2826 N3028 N3870 and 
XAND3_1191 N3877 N3826 N3876 N1591 and 
XNAND2_96 N900 N331 N606 nand 
XNAND2_97 N901 N328 N607 nand 
XNAND2_98 N902 N337 N608 nand 
XNAND2_99 N903 N334 N609 nand 
XNAND2_100 N904 N343 N610 nand 
XNAND2_101 N905 N340 N611 nand 
XNAND2_102 N998 N349 N733 nand 
XNAND2_103 N999 N346 N734 nand 
XNAND2_107 N1029 N231 N651 nand 
XNAND2_135 N1129 N900 N901 nand 
XNAND2_136 N1133 N902 N903 nand 
XNAND2_137 N1137 N904 N905 nand 
XNAND2_139 N1141 N741 N612 nand 
XNAND2_154 N1185 N768 N650 nand 
XNAND2_169 N1216 N998 N999 nand 
XNAND2_193 N1351 N352 N1140 nand 
XNAND2_194 N1352 N747 N1142 nand 
XNAND2_195 N1353 N744 N1143 nand 
XNAND2_196 N1354 N753 N1144 nand 
XNAND2_197 N1355 N750 N1145 nand 
XNAND2_198 N1395 N355 N1184 nand 
XNAND2_199 N1396 N774 N1186 nand 
XNAND2_200 N1397 N771 N1187 nand 
XNAND2_201 N1398 N780 N1188 nand 
XNAND2_202 N1399 N777 N1189 nand 
XNAND2_203 N1422 N738 N1210 nand 
XNAND2_204 N1423 N735 N1211 nand 
XNAND2_205 N1424 N759 N1212 nand 
XNAND2_206 N1425 N756 N1213 nand 
XNAND2_207 N1426 N765 N1214 nand 
XNAND2_208 N1427 N762 N1215 nand 
XNAND2_209 N1440 N786 N1249 nand 
XNAND2_210 N1441 N783 N1250 nand 
XNAND2_261 N1502 N1351 N1141 nand 
XNAND2_262 N1506 N1352 N1353 nand 
XNAND2_263 N1510 N1354 N1355 nand 
XNAND2_300 N1553 N1395 N1185 nand 
XNAND2_301 N1557 N1396 N1397 nand 
XNAND2_302 N1561 N1398 N1399 nand 
XNAND2_317 N1578 N1422 N1423 nand 
XNAND2_319 N1582 N1426 N1427 nand 
XNAND2_320 N1585 N1424 N1425 nand 
XNAND2_321 N1588 N1440 N1441 nand 
XNAND2_358 N1809 N1578 N1581 nand 
XNAND2_387 N1885 N727 N1651 nand 
XNAND2_388 N1888 N730 N1656 nand 
XNAND2_413 N1939 N1216 N1808 nand 
XNAND2_414 N1940 N1585 N1810 nand 
XNAND2_415 N1941 N1582 N1811 nand 
XNAND2_446 N2046 N1939 N1809 nand 
XNAND2_447 N2049 N1940 N1941 nand 
XNAND2_466 N2120 N408 N1827 nand 
XNAND2_483 N2172 N1942 N1919 nand 
XNAND2_502 N2219 N2031 N2030 nand 
XNAND2_516 N2302 N2052 N1519 nand 
XNAND2_518 N2304 N2055 N1520 nand 
XNAND2_520 N2306 N2058 N1521 nand 
XNAND2_522 N2308 N2061 N1522 nand 
XNAND2_524 N2310 N2064 N1523 nand 
XNAND2_526 N2312 N2067 N1524 nand 
XNAND2_528 N2314 N2070 N1525 nand 
XNAND2_530 N2316 N2073 N1526 nand 
XNAND2_532 N2318 N2076 N1527 nand 
XNAND2_534 N2320 N2079 N1528 nand 
XNAND2_536 N2322 N1708 N2171 nand 
XNAND2_537 N2323 N1948 N2173 nand 
XNAND2_538 N2324 N1945 N2174 nand 
XNAND2_539 N2325 N1954 N2175 nand 
XNAND2_540 N2326 N1951 N2176 nand 
XNAND2_543 N2329 N2095 N1572 nand 
XNAND2_545 N2331 N2098 N1573 nand 
XNAND2_547 N2333 N2101 N1574 nand 
XNAND2_549 N2335 N2104 N1575 nand 
XNAND2_551 N2337 N2107 N1576 nand 
XNAND2_553 N2339 N2110 N1577 nand 
XNAND2_555 N2354 N1960 N2234 nand 
XNAND2_556 N2355 N1957 N2235 nand 
XNAND2_557 N2356 N1966 N2236 nand 
XNAND2_558 N2357 N1963 N2237 nand 
XNAND2_580 N2400 N2219 N2300 nand 
XNAND2_583 N2407 N1219 N2303 nand 
XNAND2_584 N2408 N1222 N2305 nand 
XNAND2_585 N2409 N1225 N2307 nand 
XNAND2_586 N2410 N1228 N2309 nand 
XNAND2_587 N2411 N1231 N2311 nand 
XNAND2_588 N2412 N1234 N2313 nand 
XNAND2_589 N2413 N1237 N2315 nand 
XNAND2_590 N2414 N1240 N2317 nand 
XNAND2_591 N2415 N1243 N2319 nand 
XNAND2_592 N2416 N1246 N2321 nand 
XNAND2_593 N2417 N2322 N2172 nand 
XNAND2_594 N2421 N2323 N2324 nand 
XNAND2_595 N2425 N2325 N2326 nand 
XNAND2_596 N2428 N1251 N2330 nand 
XNAND2_597 N2429 N1254 N2332 nand 
XNAND2_598 N2430 N1257 N2334 nand 
XNAND2_599 N2431 N1260 N2336 nand 
XNAND2_600 N2432 N1263 N2338 nand 
XNAND2_601 N2433 N1266 N2340 nand 
XNAND2_609 N2453 N2197 N2200 nand 
XNAND2_620 N2484 N2298 N2297 nand 
XNAND2_621 N2487 N2356 N2357 nand 
XNAND2_622 N2490 N2354 N2355 nand 
XNAND2_623 N2493 N2328 N2327 nand 
XNAND2_625 N2503 N2188 N2364 nand 
XNAND2_626 N2504 N2185 N2365 nand 
XNAND2_627 N2510 N2204 N2372 nand 
XNAND2_628 N2511 N2201 N2373 nand 
XNAND2_630 N2528 N2046 N2406 nand 
XNAND2_635 N2544 N2302 N2407 nand 
XNAND2_636 N2545 N2304 N2408 nand 
XNAND2_637 N2546 N2306 N2409 nand 
XNAND2_638 N2547 N2308 N2410 nand 
XNAND2_639 N2548 N2310 N2411 nand 
XNAND2_640 N2549 N2312 N2412 nand 
XNAND2_641 N2550 N2314 N2413 nand 
XNAND2_642 N2551 N2316 N2414 nand 
XNAND2_643 N2552 N2318 N2415 nand 
XNAND2_644 N2553 N2320 N2416 nand 
XNAND2_645 N2563 N2329 N2428 nand 
XNAND2_646 N2564 N2331 N2429 nand 
XNAND2_647 N2565 N2333 N2430 nand 
XNAND2_648 N2566 N2335 N2431 nand 
XNAND2_649 N2567 N2337 N2432 nand 
XNAND2_650 N2568 N2339 N2433 nand 
XNAND2_651 N2579 N1936 N2452 nand 
XNAND2_659 N2613 N2503 N2504 nand 
XNAND2_661 N2618 N2434 N2366 nand 
XNAND2_662 N2619 N2437 N2367 nand 
XNAND2_665 N2624 N2510 N2511 nand 
XNAND2_667 N2629 N2454 N2374 nand 
XNAND2_680 N2652 N2528 N2400 nand 
XNAND2_685 N2664 N2484 N2301 nand 
XNAND2_707 N2694 N2493 N1807 nand 
XNAND2_716 N2703 N2579 N2453 nand 
XNAND2_722 N2719 N2191 N2617 nand 
XNAND2_723 N2720 N2194 N2620 nand 
XNAND2_724 N2726 N2207 N2628 nand 
XNAND2_728 N2747 N2049 N2663 nand 
XNAND2_733 N2760 N1588 N2693 nand 
XNAND2_736 N2771 N2443 N2695 nand 
XNAND2_737 N2772 N2440 N2696 nand 
XNAND2_738 N2773 N2449 N2697 nand 
XNAND2_739 N2774 N2446 N2698 nand 
XNAND2_740 N2775 N2460 N2699 nand 
XNAND2_741 N2776 N2457 N2700 nand 
XNAND2_742 N2777 N2466 N2701 nand 
XNAND2_743 N2778 N2463 N2702 nand 
XNAND2_744 N2781 N2490 N2707 nand 
XNAND2_745 N2782 N2487 N2708 nand 
XNAND2_753 N2796 N2719 N2618 nand 
XNAND2_754 N2800 N2619 N2720 nand 
XNAND2_756 N2806 N2726 N2629 nand 
XNAND2_763 N2826 N2747 N2664 nand 
XNAND2_771 N2841 N2760 N2694 nand 
XNAND2_776 N2874 N2773 N2774 nand 
XNAND2_777 N2877 N2771 N2772 nand 
XNAND2_779 N2881 N2703 N2706 nand 
XNAND2_780 N2882 N2777 N2778 nand 
XNAND2_781 N2885 N2775 N2776 nand 
XNAND2_782 N2888 N2781 N2782 nand 
XNAND2_783 N2891 N2783 N2784 nand 
XNAND2_804 N2963 N2469 N2880 nand 
XNAND2_865 N3076 N2881 N2963 nand 
XNAND2_883 N3175 N2877 N3072 nand 
XNAND2_884 N3176 N2874 N3073 nand 
XNAND2_885 N3177 N2885 N3074 nand 
XNAND2_886 N3178 N2882 N3075 nand 
XNAND2_887 N3180 N3048 N3047 nand 
XNAND2_896 N3195 N3076 N2375 nand 
XNAND2_910 N3238 N3175 N3176 nand 
XNAND2_911 N3241 N3177 N3178 nand 
XNAND2_928 N3286 N2210 N3196 nand 
XNAND2_930 N3289 N3180 N3049 nand 
XNAND2_971 N3400 N3195 N3286 nand 
XNAND2_979 N3410 N2888 N3333 nand 
XNAND2_1000 N3481 N3410 N3289 nand 
XNAND2_1002 N3483 N3340 N3412 nand 
XNAND2_1004 N3485 N3344 N3414 nand 
XNAND2_1006 N3487 N3348 N3416 nand 
XNAND2_1008 N3489 N3352 N3418 nand 
XNAND2_1010 N3491 N3356 N3420 nand 
XNAND2_1012 N3493 N3360 N3422 nand 
XNAND2_1019 N3502 N3370 N3430 nand 
XNAND2_1021 N3504 N3374 N3432 nand 
XNAND2_1023 N3506 N3378 N3434 nand 
XNAND2_1025 N3508 N3382 N3436 nand 
XNAND2_1027 N3510 N3386 N3438 nand 
XNAND2_1029 N3512 N3390 N3440 nand 
XNAND2_1033 N3522 N3402 N3401 nand 
XNAND2_1034 N3525 N3404 N3403 nand 
XNAND2_1043 N3552 N3244 N3482 nand 
XNAND2_1044 N3553 N3247 N3484 nand 
XNAND2_1045 N3554 N3250 N3486 nand 
XNAND2_1046 N3555 N3253 N3488 nand 
XNAND2_1047 N3556 N3256 N3490 nand 
XNAND2_1048 N3557 N3259 N3492 nand 
XNAND2_1051 N3563 N3262 N3501 nand 
XNAND2_1052 N3564 N3265 N3503 nand 
XNAND2_1053 N3565 N3268 N3505 nand 
XNAND2_1054 N3566 N3271 N3507 nand 
XNAND2_1055 N3567 N3274 N3509 nand 
XNAND2_1056 N3568 N3277 N3511 nand 
XNAND2_1064 N3593 N3522 N3405 nand 
XNAND2_1066 N3595 N3525 N3406 nand 
XNAND2_1068 N3597 N3528 N2630 nand 
XNAND2_1069 N3598 N3531 N2376 nand 
XNAND2_1072 N3603 N3552 N3483 nand 
XNAND2_1073 N3608 N3553 N3485 nand 
XNAND2_1074 N3612 N3554 N3487 nand 
XNAND2_1075 N3615 N3555 N3489 nand 
XNAND2_1076 N3616 N3556 N3491 nand 
XNAND2_1077 N3622 N3557 N3493 nand 
XNAND2_1079 N3630 N3534 N2645 nand 
XNAND2_1081 N3632 N3537 N2655 nand 
XNAND2_1082 N3633 N3540 N2403 nand 
XNAND2_1084 N3635 N3563 N3502 nand 
XNAND2_1085 N3640 N3564 N3504 nand 
XNAND2_1086 N3644 N3565 N3506 nand 
XNAND2_1087 N3647 N3566 N3508 nand 
XNAND2_1088 N3648 N3567 N3510 nand 
XNAND2_1089 N3654 N3568 N3512 nand 
XNAND2_1091 N3662 N3543 N2656 nand 
XNAND2_1092 N3667 N3238 N3592 nand 
XNAND2_1093 N3668 N3241 N3594 nand 
XNAND2_1094 N3669 N2472 N3596 nand 
XNAND2_1095 N3670 N2213 N3599 nand 
XNAND2_1098 N3692 N3576 N3494 nand 
XNAND2_1100 N3694 N3579 N3496 nand 
XNAND2_1101 N3695 N2475 N3629 nand 
XNAND2_1102 N3696 N2478 N3631 nand 
XNAND2_1103 N3697 N2216 N3634 nand 
XNAND2_1105 N3717 N3585 N3513 nand 
XNAND2_1107 N3719 N3588 N3515 nand 
XNAND2_1108 N3720 N2481 N3661 nand 
XNAND2_1109 N3721 N3667 N3593 nand 
XNAND2_1110 N3722 N3668 N3595 nand 
XNAND2_1111 N3723 N3669 N3597 nand 
XNAND2_1112 N3726 N3670 N3598 nand 
XNAND2_1114 N3728 N3364 N3691 nand 
XNAND2_1115 N3729 N3367 N3693 nand 
XNAND2_1116 N3730 N3695 N3630 nand 
XNAND2_1123 N3737 N3696 N3632 nand 
XNAND2_1124 N3740 N3697 N3633 nand 
XNAND2_1125 N3741 N3394 N3716 nand 
XNAND2_1126 N3742 N3397 N3718 nand 
XNAND2_1127 N3743 N3720 N3662 nand 
XNAND2_1136 N3754 N3728 N3692 nand 
XNAND2_1137 N3758 N3729 N3694 nand 
XNAND2_1140 N3767 N3741 N3717 nand 
XNAND2_1141 N3771 N3742 N3719 nand 
XNAND2_1165 N3818 N3805 N3761 nand 
XNAND2_1169 N3822 N3812 N3774 nand 
XNAND2_1182 N3852 N3843 N3840 nand 
XOR2_192 N1302 N1069 N543 or 
XOR4_323 N1596 N1451 N1452 N1453 N1064 or 
XOR4_324 N1600 N1454 N1455 N1456 N1065 or 
XOR4_325 N1606 N1457 N1458 N1459 N1066 or 
XOR4_326 N1612 N1460 N1461 N1462 N1067 or 
XOR4_327 N1615 N1463 N1464 N1465 N1068 or 
XOR4_328 N1619 N1466 N1467 N1468 N1097 or 
XOR4_329 N1624 N1469 N1470 N1471 N1098 or 
XOR4_330 N1628 N1472 N1473 N1474 N1099 or 
XOR4_331 N1631 N1475 N1476 N1477 N1100 or 
XOR4_332 N1634 N1478 N1479 N1480 N1101 or 
XOR4_333 N1637 N1481 N1482 N1483 N1124 or 
XOR4_334 N1642 N1484 N1485 N1486 N1125 or 
XOR4_335 N1647 N1487 N1488 N1489 N1126 or 
XOR4_336 N1651 N1490 N1491 N1492 N1127 or 
XOR4_337 N1656 N1493 N1494 N1495 N1128 or 
XOR4_338 N1676 N1532 N1533 N1534 N1169 or 
XOR4_339 N1681 N1535 N1536 N1537 N1170 or 
XOR4_340 N1686 N1538 N1539 N1540 N1171 or 
XOR4_341 N1690 N1541 N1542 N1543 N1172 or 
XOR4_342 N1708 N1529 N1530 N1531 N1168 or 
XOR2_425 N1969 N533 N1815 or 
XOR2_441 N2034 N1571 N1935 or 
XOR2_448 N2052 N1544 N1910 or 
XOR2_449 N2055 N1545 N1911 or 
XOR2_450 N2058 N1546 N1912 or 
XOR2_451 N2061 N1547 N1913 or 
XOR2_452 N2064 N1548 N1914 or 
XOR2_453 N2067 N1549 N1915 or 
XOR2_454 N2070 N1550 N1916 or 
XOR2_455 N2073 N1551 N1917 or 
XOR2_456 N2076 N1552 N1918 or 
XOR2_457 N2079 N1564 N1928 or 
XOR2_458 N2095 N1565 N1929 or 
XOR2_459 N2098 N1566 N1930 or 
XOR2_460 N2101 N1567 N1931 or 
XOR2_461 N2104 N1568 N1932 or 
XOR2_462 N2107 N1569 N1933 or 
XOR2_463 N2110 N1570 N1934 or 
XOR2_508 N2266 N1831 N2126 or 
XOR2_509 N2269 N2127 N1832 or 
XOR2_510 N2291 N2153 N2154 or 
XOR2_511 N2294 N2155 N2156 or 
XOR2_624 N2496 N2358 N1814 or 
XOR2_629 N2521 N1830 N2386 or 
XOR2_746 N2783 N2709 N2534 or 
XOR2_747 N2784 N2710 N2531 or 
XOR2_788 N2898 N2789 N2611 or 
XOR2_789 N2899 N2790 N2612 or 
XOR2_792 N2914 N2809 N2631 or 
XOR2_793 N2915 N2810 N2632 or 
XOR2_929 N3288 N3197 N3007 or 
XOR2_937 N3302 N3208 N3029 or 
XOR2_944 N3315 N3215 N3035 or 
XOR2_945 N3318 N3216 N3036 or 
XOR2_946 N3321 N3217 N3037 or 
XOR2_947 N3324 N3218 N3044 or 
XOR2_948 N3327 N3219 N3045 or 
XOR2_949 N3330 N3220 N3046 or 
XOR2_951 N3334 N3222 N3053 or 
XOR2_952 N3335 N3223 N3054 or 
XOR2_953 N3336 N3230 N3064 or 
XOR2_954 N3337 N3231 N3065 or 
XOR2_1041 N3546 N3478 N1813 or 
XOR4_1139 N3762 N3291 N3732 N3733 N3734 or 
XOR4_1143 N3775 N3304 N3745 N3746 N3747 or 
XOR2_1146 N3780 N2125 N3753 or 
XOR3_1150 N3802 N3479 N3778 N3779 or 
XOR3_1158 N3811 N3499 N3793 N3794 or 
XOR5_1163 N3816 N3299 N3735 N3736 N3807 N3808 or 
XOR5_1167 N3820 N3312 N3748 N3749 N3814 N3815 or 
XOR2_1170 N3823 N3816 N3817 or 
XOR2_1172 N3827 N3820 N3821 or 
XOR2_1179 N3840 N3838 N3835 or 
XOR2_1180 N3843 N3839 N3837 or 
XOR2_1185 N3859 N3857 N3858 or 
XOR2_1188 N3870 N3869 N3864 or 
XNOR2_437 N2030 N1908 N1784 nor 
XNOR2_438 N2031 N1909 N1785 nor 
XNOR2_512 N2297 N2157 N2032 nor 
XNOR2_513 N2298 N2158 N2033 nor 
XNOR2_541 N2327 N2177 N2042 nor 
XNOR2_542 N2328 N2178 N2043 nor 
XNOR2_840 N3047 N2938 N2839 nor 
XNOR2_841 N3048 N2939 N2840 nor 
XNOR2_972 N3401 N3281 N3191 nor 
XNOR2_973 N3402 N3282 N3192 nor 
XNOR2_974 N3403 N3283 N3193 nor 
XNOR2_975 N3404 N3284 N3194 nor 
XBUFF1_1 N398 N219 buf 
XBUFF1_2 N400 N219 buf 
XBUFF1_3 N401 N219 buf 
XBUFF1_6 N419 N253 buf 
XBUFF1_7 N420 N253 buf 
XBUFF1_9 N456 N290 buf 
XBUFF1_10 N457 N290 buf 
XBUFF1_11 N458 N290 buf 
XBUFF1_23 N496 N237 buf 
XBUFF1_25 N500 N219 buf 
XBUFF1_26 N503 N8 buf 
XBUFF1_27 N506 N8 buf 
XBUFF1_28 N509 N227 buf 
XBUFF1_29 N521 N234 buf 
XBUFF1_35 N550 N227 buf 
XBUFF1_36 N562 N234 buf 
XBUFF1_39 N582 N319 buf 
XBUFF1_40 N594 N322 buf 
XBUFF1_48 N613 N319 buf 
XBUFF1_49 N625 N322 buf 
XBUFF1_50 N637 N16 buf 
XBUFF1_51 N643 N16 buf 
XBUFF1_63 N693 N29 buf 
XBUFF1_64 N699 N29 buf 
XBUFF1_74 N735 N259 buf 
XBUFF1_75 N738 N256 buf 
XBUFF1_76 N741 N263 buf 
XBUFF1_77 N744 N269 buf 
XBUFF1_78 N747 N266 buf 
XBUFF1_79 N750 N275 buf 
XBUFF1_80 N753 N272 buf 
XBUFF1_81 N756 N281 buf 
XBUFF1_82 N759 N278 buf 
XBUFF1_83 N762 N287 buf 
XBUFF1_84 N765 N284 buf 
XBUFF1_85 N768 N294 buf 
XBUFF1_86 N771 N301 buf 
XBUFF1_87 N774 N297 buf 
XBUFF1_88 N777 N309 buf 
XBUFF1_89 N780 N305 buf 
XBUFF1_90 N783 N316 buf 
XBUFF1_91 N786 N313 buf 
XBUFF1_95 N805 N500 buf 
XBUFF1_111 N1037 N503 buf 
XBUFF1_120 N1070 N503 buf 
XBUFF1_159 N1190 N506 buf 
XBUFF1_160 N1195 N506 buf 
XBUFF1_170 N1219 N574 buf 
XBUFF1_171 N1222 N578 buf 
XBUFF1_172 N1225 N655 buf 
XBUFF1_173 N1228 N659 buf 
XBUFF1_174 N1231 N663 buf 
XBUFF1_175 N1234 N667 buf 
XBUFF1_176 N1237 N671 buf 
XBUFF1_177 N1240 N675 buf 
XBUFF1_178 N1243 N679 buf 
XBUFF1_179 N1246 N683 buf 
XBUFF1_182 N1251 N687 buf 
XBUFF1_183 N1254 N705 buf 
XBUFF1_184 N1257 N711 buf 
XBUFF1_185 N1260 N715 buf 
XBUFF1_186 N1263 N719 buf 
XBUFF1_187 N1266 N723 buf 
XBUFF1_191 N1277 N1034 buf 
XBUFF1_264 N1513 N1137 buf 
XBUFF1_265 N1516 N1137 buf 
XBUFF1_343 N1726 N1591 buf 
XBUFF1_348 N1778 N1510 buf 
XBUFF1_349 N1781 N1510 buf 
XBUFF1_354 N1801 N1561 buf 
XBUFF1_355 N1804 N1561 buf 
XBUFF1_372 N1824 N1596 buf 
XBUFF1_380 N1848 N1612 buf 
XBUFF1_381 N1852 N1615 buf 
XBUFF1_382 N1856 N1619 buf 
XBUFF1_383 N1863 N1624 buf 
XBUFF1_384 N1870 N1628 buf 
XBUFF1_385 N1875 N1631 buf 
XBUFF1_386 N1880 N1634 buf 
XBUFF1_389 N1891 N1686 buf 
XBUFF1_412 N1936 N1600 buf 
XBUFF1_416 N1942 N1676 buf 
XBUFF1_417 N1945 N1686 buf 
XBUFF1_418 N1948 N1681 buf 
XBUFF1_419 N1951 N1637 buf 
XBUFF1_420 N1954 N1690 buf 
XBUFF1_421 N1957 N1647 buf 
XBUFF1_422 N1960 N1642 buf 
XBUFF1_423 N1963 N1656 buf 
XBUFF1_424 N1966 N1651 buf 
XBUFF1_428 N2010 N1848 buf 
XBUFF1_429 N2012 N1852 buf 
XBUFF1_430 N2014 N1856 buf 
XBUFF1_431 N2016 N1863 buf 
XBUFF1_432 N2018 N1870 buf 
XBUFF1_433 N2020 N1875 buf 
XBUFF1_434 N2022 N1880 buf 
XBUFF1_490 N2185 N1836 buf 
XBUFF1_491 N2188 N1833 buf 
XBUFF1_492 N2191 N1841 buf 
XBUFF1_496 N2201 N1836 buf 
XBUFF1_497 N2204 N1833 buf 
XBUFF1_498 N2207 N1841 buf 
XBUFF1_499 N2210 N1824 buf 
XBUFF1_500 N2213 N1841 buf 
XBUFF1_501 N2216 N1841 buf 
XBUFF1_565 N2368 N2120 buf 
XBUFF1_572 N2382 N2113 buf 
XBUFF1_574 N2387 N2266 buf 
XBUFF1_575 N2388 N2266 buf 
XBUFF1_576 N2389 N2269 buf 
XBUFF1_577 N2390 N2269 buf 
XBUFF1_578 N2391 N2113 buf 
XBUFF1_602 N2434 N2128 buf 
XBUFF1_603 N2437 N2135 buf 
XBUFF1_604 N2440 N2144 buf 
XBUFF1_605 N2443 N2141 buf 
XBUFF1_606 N2446 N2150 buf 
XBUFF1_607 N2449 N2147 buf 
XBUFF1_610 N2454 N2128 buf 
XBUFF1_611 N2457 N2144 buf 
XBUFF1_612 N2460 N2141 buf 
XBUFF1_613 N2463 N2150 buf 
XBUFF1_614 N2466 N2147 buf 
XBUFF1_616 N2472 N2128 buf 
XBUFF1_617 N2475 N2135 buf 
XBUFF1_618 N2478 N2128 buf 
XBUFF1_619 N2481 N2135 buf 
XBUFF1_633 N2537 N2250 buf 
XBUFF1_634 N2540 N2250 buf 
XBUFF1_652 N2603 N2359 buf 
XBUFF1_676 N2643 N2521 buf 
XBUFF1_677 N2644 N2521 buf 
XBUFF1_683 N2659 N2359 buf 
XBUFF1_704 N2687 N2425 buf 
XBUFF1_705 N2690 N2425 buf 
XBUFF1_725 N2729 N2537 buf 
XBUFF1_726 N2738 N2537 buf 
XBUFF1_734 N2761 N2540 buf 
XBUFF1_735 N2766 N2540 buf 
XBUFF1_762 N2820 N2603 buf 
XBUFF1_766 N2831 N2659 buf 
XBUFF1_772 N2844 N2603 buf 
XBUFF1_773 N2854 N2603 buf 
XBUFF1_774 N2859 N2659 buf 
XBUFF1_775 N2869 N2659 buf 
XBUFF1_800 N2925 N2817 buf 
XBUFF1_816 N2995 N2800 buf 
XBUFF1_817 N2998 N2800 buf 
XBUFF1_818 N3001 N2806 buf 
XBUFF1_819 N3004 N2806 buf 
XBUFF1_835 N3038 N2931 buf 