$ Spice netlist generated by v2lvs
$ v2013.3_28.19    Tue Sep 3 16:44:15 PDT 2013

.SUBCKT c3540 N1 N13 N20 N33 N41 N45 N50 N58 N68 N77 N87 N97 N107 N116 N124 
+ N125 N128 N132 N137 N143 N150 N159 N169 N179 N190 N200 N213 N222 N223 N226 
+ N232 N238 N244 N250 N257 N264 N270 N274 N283 N294 N303 N311 N317 N322 N326 
+ N329 N330 N343 N349 N350 N1713 N1947 N3195 N3833 N3987 N4028 N4145 N4589 
+ N4667 N4815 N4944 N5002 N5045 N5047 N5078 N5102 N5120 N5121 N5192 N5231 N5360 
+ N5361 
XAND2_25 N793 N13 N20 and 
XAND2_32 N829 N33 N41 and 
XAND2_53 N890 N20 N200 and 
XAND2_55 N892 N20 N179 and 
XAND2_79 N1067 N250 N768 and 
XAND2_84 N1202 N913 N914 and 
XAND3_86 N1250 N842 N848 N854 and 
XAND2_110 N1306 N779 N835 and 
XAND3_111 N1315 N779 N836 N832 and 
XAND2_112 N1322 N769 N836 and 
XAND3_113 N1325 N772 N786 N798 and 
XAND3_120 N1340 N861 N867 N870 and 
XAND3_148 N1452 N769 N782 N794 and 
XAND4_170 N1507 N1251 N1252 N1253 N1254 and 
XAND4_171 N1508 N1255 N1256 N1257 N1258 and 
XAND2_176 N1520 N655 N1263 and 
XAND2_177 N1562 N874 N1337 and 
XAND2_179 N1580 N803 N1117 and 
XAND2_180 N1581 N1338 N1345 and 
XAND2_182 N1583 N803 N1117 and 
XAND2_184 N1585 N803 N1117 and 
XAND2_185 N1586 N854 N1347 and 
XAND2_187 N1588 N803 N1117 and 
XAND2_188 N1589 N77 N1348 and 
XAND2_190 N1591 N803 N1117 and 
XAND2_191 N1592 N1343 N1349 and 
XAND2_193 N1594 N803 N1117 and 
XAND2_195 N1596 N803 N1117 and 
XAND2_196 N1597 N870 N1351 and 
XAND2_198 N1599 N803 N1117 and 
XAND2_199 N1600 N116 N1352 and 
XAND2_200 N1643 N222 N1401 and 
XAND2_201 N1644 N223 N1402 and 
XAND2_202 N1645 N226 N1403 and 
XAND2_203 N1646 N232 N1404 and 
XAND2_204 N1647 N238 N1405 and 
XAND2_205 N1648 N244 N1406 and 
XAND2_206 N1649 N250 N1407 and 
XAND2_207 N1650 N257 N1408 and 
XAND3_208 N1667 N1 N13 N1426 and 
XAND3_209 N1670 N1 N13 N1427 and 
XAND2_223 N1714 N87 N1264 and 
XAND2_227 N1722 N763 N1340 and 
XAND2_232 N1729 N683 N1268 and 
XAND2_249 N1787 N845 N1579 and 
XAND2_250 N1788 N150 N1580 and 
XAND2_251 N1789 N851 N1582 and 
XAND2_252 N1790 N159 N1583 and 
XAND2_253 N1791 N77 N1584 and 
XAND2_254 N1792 N50 N1585 and 
XAND2_255 N1793 N858 N1587 and 
XAND2_256 N1794 N845 N1588 and 
XAND2_257 N1795 N864 N1590 and 
XAND2_258 N1796 N851 N1591 and 
XAND2_259 N1797 N107 N1593 and 
XAND2_260 N1798 N77 N1594 and 
XAND2_261 N1799 N116 N1595 and 
XAND2_262 N1800 N858 N1596 and 
XAND2_263 N1801 N283 N1598 and 
XAND2_264 N1802 N864 N1599 and 
XAND2_265 N1803 N200 N1363 and 
XAND2_266 N1806 N889 N1363 and 
XAND2_267 N1809 N890 N1366 and 
XAND2_268 N1812 N891 N1366 and 
XAND2_282 N1850 N1384 N896 and 
XAND2_284 N1852 N1384 N896 and 
XAND2_286 N1854 N1384 N896 and 
XAND2_288 N1856 N1384 N896 and 
XAND2_290 N1858 N1384 N896 and 
XAND2_292 N1860 N1384 N896 and 
XAND2_294 N1862 N1384 N896 and 
XAND2_296 N1864 N1384 N896 and 
XAND2_297 N1869 N1202 N1409 and 
XAND2_300 N1874 N1202 N1409 and 
XAND2_303 N1879 N1202 N1409 and 
XAND2_306 N1884 N1202 N1409 and 
XAND2_309 N1889 N1202 N1409 and 
XAND2_312 N1894 N1202 N1409 and 
XAND2_315 N1899 N1202 N1409 and 
XAND2_318 N1904 N1202 N1409 and 
XAND2_321 N1909 N1452 N213 and 
XAND3_323 N1913 N1452 N213 N343 and 
XAND3_325 N1922 N1452 N213 N343 and 
XAND2_341 N1966 N1520 N1276 and 
XAND2_344 N1983 N1067 N1768 and 
XAND2_351 N2022 N77 N1849 and 
XAND2_352 N2023 N223 N1850 and 
XAND2_353 N2024 N87 N1851 and 
XAND2_354 N2025 N226 N1852 and 
XAND2_355 N2026 N97 N1853 and 
XAND2_356 N2027 N232 N1854 and 
XAND2_357 N2028 N107 N1855 and 
XAND2_358 N2029 N238 N1856 and 
XAND2_359 N2030 N116 N1857 and 
XAND2_360 N2031 N244 N1858 and 
XAND2_361 N2032 N283 N1859 and 
XAND2_362 N2033 N250 N1860 and 
XAND2_363 N2034 N294 N1861 and 
XAND2_364 N2035 N257 N1862 and 
XAND2_365 N2036 N303 N1863 and 
XAND2_366 N2037 N264 N1864 and 
XAND3_371 N2068 N50 N1197 N1869 and 
XAND3_372 N2073 N58 N1197 N1874 and 
XAND3_373 N2078 N68 N1197 N1879 and 
XAND3_374 N2083 N77 N1197 N1884 and 
XAND3_375 N2088 N87 N1219 N1889 and 
XAND3_376 N2093 N97 N1219 N1894 and 
XAND3_377 N2098 N107 N1219 N1899 and 
XAND3_378 N2103 N116 N1219 N1904 and 
XAND2_397 N2144 N1738 N1747 and 
XAND4_401 N2148 N1722 N1267 N665 N58 and 
XAND2_403 N2150 N1738 N1747 and 
XAND2_407 N2154 N1738 N1747 and 
XAND2_410 N2157 N1738 N1747 and 
XAND2_416 N2181 N1756 N1328 and 
XAND2_418 N2184 N1331 N1756 and 
XAND2_429 N2211 N1815 N1818 and 
XAND2_448 N2270 N1986 N1673 and 
XAND2_449 N2277 N1987 N1675 and 
XAND2_450 N2282 N1988 N1676 and 
XAND2_451 N2287 N1989 N1677 and 
XAND2_452 N2294 N1990 N1679 and 
XAND2_453 N2299 N1991 N1680 and 
XAND2_455 N2307 N1930 N350 and 
XAND2_467 N2347 N724 N2144 and 
XAND3_468 N2348 N2146 N699 N1726 and 
XAND2_469 N2349 N753 N2147 and 
XAND2_470 N2350 N2148 N1273 and 
XAND2_471 N2351 N736 N2150 and 
XAND2_472 N2352 N1735 N2153 and 
XAND2_473 N2353 N763 N2154 and 
XAND2_474 N2354 N1725 N2156 and 
XAND2_475 N2355 N749 N2157 and 
XAND2_478 N2376 N1520 N2180 and 
XAND2_479 N2379 N1721 N2181 and 
XAND2_480 N2398 N665 N2211 and 
XAND3_481 N2417 N2057 N226 N1873 and 
XAND3_482 N2418 N2057 N274 N1306 and 
XAND2_483 N2419 N2052 N2238 and 
XAND3_484 N2420 N2057 N232 N1878 and 
XAND3_485 N2421 N2057 N274 N1306 and 
XAND2_486 N2422 N2052 N2239 and 
XAND3_487 N2425 N2057 N238 N1883 and 
XAND3_488 N2426 N2057 N274 N1306 and 
XAND2_489 N2427 N2052 N2240 and 
XAND3_490 N2430 N2057 N244 N1888 and 
XAND3_491 N2431 N2057 N274 N1306 and 
XAND2_492 N2432 N2052 N2241 and 
XAND3_493 N2435 N2043 N250 N1893 and 
XAND3_494 N2436 N2043 N274 N1322 and 
XAND2_495 N2437 N2038 N2242 and 
XAND3_496 N2438 N2043 N257 N1898 and 
XAND3_497 N2439 N2043 N274 N1315 and 
XAND2_498 N2440 N2038 N2243 and 
XAND3_499 N2443 N2043 N264 N1903 and 
XAND3_500 N2444 N2043 N274 N1315 and 
XAND2_501 N2445 N2038 N2244 and 
XAND3_502 N2448 N2043 N270 N1908 and 
XAND3_503 N2449 N2043 N274 N1315 and 
XAND2_504 N2450 N2038 N2245 and 
XAND2_516 N2482 N2175 N1334 and 
XAND2_517 N2483 N2349 N2183 and 
XAND2_518 N2486 N2374 N1346 and 
XAND2_519 N2487 N2375 N1350 and 
XAND2_537 N2633 N2212 N1833 and 
XAND2_539 N2635 N2212 N1833 and 
XAND2_541 N2637 N2212 N1833 and 
XAND2_543 N2639 N2212 N1833 and 
XAND2_545 N2641 N2221 N1824 and 
XAND2_547 N2643 N2221 N1824 and 
XAND2_549 N2645 N2221 N1824 and 
XAND2_551 N2647 N2221 N1824 and 
XAND2_574 N2730 N1562 N2158 and 
XAND2_576 N2732 N1562 N2158 and 
XAND2_578 N2734 N1562 N2158 and 
XAND2_580 N2736 N1562 N2158 and 
XAND2_582 N2738 N1562 N2158 and 
XAND2_584 N2740 N1562 N2158 and 
XAND2_586 N2742 N1562 N2158 and 
XAND2_588 N2744 N1562 N2158 and 
XAND2_599 N2758 N1520 N2481 and 
XAND2_600 N2761 N1722 N2482 and 
XAND2_601 N2764 N2478 N1770 and 
XAND2_604 N2898 N665 N2633 and 
XAND2_605 N2899 N679 N2635 and 
XAND2_606 N2900 N686 N2637 and 
XAND2_607 N2901 N702 N2639 and 
XAND2_614 N2980 N2471 N2143 and 
XAND2_746 N3119 N2768 N1674 and 
XAND2_758 N3149 N2769 N1678 and 
XAND2_767 N3172 N1909 N2648 and 
XAND2_768 N3175 N1913 N2662 and 
XAND2_769 N3178 N1913 N2673 and 
XAND2_770 N3181 N1913 N2684 and 
XAND2_771 N3184 N1922 N2702 and 
XAND2_772 N3187 N1922 N2715 and 
XAND5_777 N3194 N2692 N2697 N2710 N2723 N1459 and 
XAND2_781 N3207 N124 N2984 and 
XAND2_782 N3208 N159 N2985 and 
XAND2_783 N3209 N150 N2986 and 
XAND2_784 N3210 N143 N2987 and 
XAND2_785 N3211 N137 N2988 and 
XAND2_786 N3212 N132 N2989 and 
XAND2_787 N3213 N128 N2990 and 
XAND2_788 N3214 N125 N2991 and 
XAND2_789 N3215 N125 N2992 and 
XAND2_790 N3216 N655 N2993 and 
XAND2_791 N3217 N159 N2994 and 
XAND2_792 N3218 N150 N2995 and 
XAND2_793 N3219 N143 N2996 and 
XAND2_794 N3220 N137 N2997 and 
XAND2_795 N3221 N132 N2998 and 
XAND2_796 N3222 N128 N2999 and 
XAND2_797 N3223 N128 N3000 and 
XAND2_798 N3224 N670 N3001 and 
XAND2_799 N3225 N655 N3002 and 
XAND2_800 N3226 N159 N3003 and 
XAND2_801 N3227 N150 N3004 and 
XAND2_802 N3228 N143 N3005 and 
XAND2_803 N3229 N137 N3006 and 
XAND2_804 N3230 N132 N3007 and 
XAND2_805 N3231 N132 N3008 and 
XAND2_806 N3232 N690 N3009 and 
XAND2_807 N3233 N670 N3010 and 
XAND2_808 N3234 N655 N3011 and 
XAND2_809 N3235 N159 N3012 and 
XAND2_810 N3236 N150 N3013 and 
XAND2_811 N3237 N143 N3014 and 
XAND2_812 N3238 N137 N3015 and 
XAND2_813 N3239 N137 N3016 and 
XAND2_814 N3240 N706 N3017 and 
XAND2_815 N3241 N690 N3018 and 
XAND2_816 N3242 N670 N3019 and 
XAND2_817 N3243 N655 N3020 and 
XAND2_818 N3244 N159 N3021 and 
XAND2_819 N3245 N150 N3022 and 
XAND2_820 N3246 N143 N3023 and 
XAND2_821 N3247 N143 N3024 and 
XAND2_822 N3248 N715 N3025 and 
XAND2_823 N3249 N706 N3026 and 
XAND2_824 N3250 N690 N3027 and 
XAND2_825 N3251 N670 N3028 and 
XAND2_826 N3252 N655 N3029 and 
XAND2_827 N3253 N159 N3030 and 
XAND2_828 N3254 N150 N3031 and 
XAND2_829 N3255 N150 N3032 and 
XAND2_830 N3256 N727 N3033 and 
XAND2_831 N3257 N715 N3034 and 
XAND2_832 N3258 N706 N3035 and 
XAND2_833 N3259 N690 N3036 and 
XAND2_834 N3260 N670 N3037 and 
XAND2_835 N3261 N655 N3038 and 
XAND2_836 N3262 N159 N3039 and 
XAND2_837 N3263 N159 N3040 and 
XAND2_838 N3264 N740 N3041 and 
XAND2_839 N3265 N727 N3042 and 
XAND2_840 N3266 N715 N3043 and 
XAND2_841 N3267 N706 N3044 and 
XAND2_842 N3268 N690 N3045 and 
XAND2_843 N3269 N670 N3046 and 
XAND2_844 N3270 N655 N3047 and 
XAND2_845 N3271 N283 N3048 and 
XAND2_846 N3272 N670 N3049 and 
XAND2_847 N3273 N690 N3050 and 
XAND2_848 N3274 N706 N3051 and 
XAND2_849 N3275 N715 N3052 and 
XAND2_850 N3276 N727 N3053 and 
XAND2_851 N3277 N740 N3054 and 
XAND2_852 N3278 N753 N3055 and 
XAND2_853 N3279 N294 N3056 and 
XAND2_854 N3280 N690 N3057 and 
XAND2_855 N3281 N706 N3058 and 
XAND2_856 N3282 N715 N3059 and 
XAND2_857 N3283 N727 N3060 and 
XAND2_858 N3284 N740 N3061 and 
XAND2_859 N3285 N753 N3062 and 
XAND2_860 N3286 N283 N3063 and 
XAND2_861 N3287 N303 N3064 and 
XAND2_862 N3288 N706 N3065 and 
XAND2_863 N3289 N715 N3066 and 
XAND2_864 N3290 N727 N3067 and 
XAND2_865 N3291 N740 N3068 and 
XAND2_866 N3292 N753 N3069 and 
XAND2_867 N3293 N283 N3070 and 
XAND2_868 N3294 N294 N3071 and 
XAND2_869 N3295 N311 N3072 and 
XAND2_870 N3296 N715 N3073 and 
XAND2_871 N3297 N727 N3074 and 
XAND2_872 N3298 N740 N3075 and 
XAND2_873 N3299 N753 N3076 and 
XAND2_874 N3300 N283 N3077 and 
XAND2_875 N3301 N294 N3078 and 
XAND2_876 N3302 N303 N3079 and 
XAND2_877 N3303 N317 N3080 and 
XAND2_878 N3304 N727 N3081 and 
XAND2_879 N3305 N740 N3082 and 
XAND2_880 N3306 N753 N3083 and 
XAND2_881 N3307 N283 N3084 and 
XAND2_882 N3308 N294 N3085 and 
XAND2_883 N3309 N303 N3086 and 
XAND2_884 N3310 N311 N3087 and 
XAND2_885 N3311 N322 N3088 and 
XAND2_886 N3312 N740 N3089 and 
XAND2_887 N3313 N753 N3090 and 
XAND2_888 N3314 N283 N3091 and 
XAND2_889 N3315 N294 N3092 and 
XAND2_890 N3316 N303 N3093 and 
XAND2_891 N3317 N311 N3094 and 
XAND2_892 N3318 N317 N3095 and 
XAND2_893 N3319 N326 N3096 and 
XAND2_894 N3320 N753 N3097 and 
XAND2_895 N3321 N283 N3098 and 
XAND2_896 N3322 N294 N3099 and 
XAND2_897 N3323 N303 N3100 and 
XAND2_898 N3324 N311 N3101 and 
XAND2_899 N3325 N317 N3102 and 
XAND2_900 N3326 N322 N3103 and 
XAND2_901 N3327 N329 N3104 and 
XAND2_902 N3328 N283 N3105 and 
XAND2_903 N3329 N294 N3106 and 
XAND2_904 N3330 N303 N3107 and 
XAND2_905 N3331 N311 N3108 and 
XAND2_906 N3332 N317 N3109 and 
XAND2_907 N3333 N322 N3110 and 
XAND2_908 N3334 N326 N3111 and 
XAND5_909 N3383 N3190 N3191 N3192 N3193 N917 and 
XAND2_911 N3387 N3196 N1736 and 
XAND2_912 N3388 N2977 N2149 and 
XAND2_913 N3389 N2973 N1737 and 
XAND2_930 N3406 N3206 N2641 and 
XAND3_931 N3407 N169 N2648 N3112 and 
XAND3_932 N3410 N179 N2648 N3115 and 
XAND3_933 N3413 N190 N2652 N3115 and 
XAND3_934 N3414 N200 N2652 N3112 and 
XAND3_937 N3423 N169 N2662 N3128 and 
XAND3_938 N3426 N179 N2662 N3131 and 
XAND3_939 N3429 N190 N2666 N3131 and 
XAND3_940 N3430 N200 N2666 N3128 and 
XAND3_941 N3431 N169 N2673 N3135 and 
XAND3_942 N3434 N179 N2673 N3138 and 
XAND3_943 N3437 N190 N2677 N3138 and 
XAND3_944 N3438 N200 N2677 N3135 and 
XAND3_945 N3439 N169 N2684 N3142 and 
XAND3_946 N3442 N179 N2684 N3145 and 
XAND3_947 N3445 N190 N2688 N3145 and 
XAND3_948 N3446 N200 N2688 N3142 and 
XAND3_951 N3455 N169 N2702 N3158 and 
XAND3_952 N3458 N179 N2702 N3161 and 
XAND3_953 N3461 N190 N2706 N3161 and 
XAND3_954 N3462 N200 N2706 N3158 and 
XAND3_955 N3463 N169 N2715 N3165 and 
XAND3_956 N3466 N179 N2715 N3168 and 
XAND3_957 N3469 N190 N2719 N3168 and 
XAND3_958 N3470 N200 N2719 N3165 and 
XAND2_981 N3537 N3390 N2209 and 
XAND2_982 N3538 N3398 N2210 and 
XAND2_983 N3539 N3391 N1842 and 
XAND2_984 N3540 N3399 N1369 and 
XAND2_985 N3541 N3392 N1843 and 
XAND2_986 N3542 N3400 N1369 and 
XAND2_987 N3543 N3393 N1844 and 
XAND2_988 N3544 N3401 N1369 and 
XAND2_989 N3545 N3394 N1845 and 
XAND2_990 N3546 N3402 N1369 and 
XAND2_991 N3547 N3395 N1846 and 
XAND2_992 N3548 N3403 N1369 and 
XAND2_993 N3549 N3396 N1847 and 
XAND2_994 N3550 N3404 N1369 and 
XAND2_995 N3551 N3397 N1848 and 
XAND2_996 N3552 N3405 N1369 and 
XAND2_1003 N3605 N3471 N2728 and 
XAND2_1010 N3632 N3536 N2152 and 
XAND2_1011 N3633 N3534 N2155 and 
XAND2_1020 N3642 N3535 N2643 and 
XAND3_1023 N3645 N169 N3415 N3122 and 
XAND3_1024 N3648 N179 N3415 N3125 and 
XAND3_1025 N3651 N190 N3419 N3125 and 
XAND3_1026 N3652 N200 N3419 N3122 and 
XAND3_1034 N3664 N169 N3447 N3152 and 
XAND3_1035 N3667 N179 N3447 N3155 and 
XAND3_1036 N3670 N190 N3451 N3155 and 
XAND3_1037 N3671 N200 N3451 N3152 and 
XAND2_1044 N3682 N1909 N3415 and 
XAND2_1050 N3690 N1922 N3447 and 
XAND2_1065 N3713 N3634 N2632 and 
XAND2_1066 N3714 N3635 N2634 and 
XAND2_1067 N3715 N3636 N2636 and 
XAND2_1068 N3716 N3637 N2638 and 
XAND2_1069 N3717 N3638 N2640 and 
XAND2_1070 N3718 N3639 N2642 and 
XAND2_1071 N3719 N3640 N2644 and 
XAND2_1072 N3720 N3641 N2646 and 
XAND2_1073 N3721 N3644 N3557 and 
XAND2_1075 N3734 N3657 N3568 and 
XAND2_1076 N3740 N3661 N3573 and 
XAND2_1077 N3743 N3663 N3578 and 
XAND2_1079 N3756 N3676 N3589 and 
XAND2_1080 N3762 N3680 N3594 and 
XAND2_1089 N3779 N3712 N2645 and 
XAND2_1090 N3780 N3711 N2647 and 
XAND2_1095 N3809 N3654 N1917 and 
XAND2_1096 N3812 N3658 N1917 and 
XAND2_1097 N3815 N3673 N1926 and 
XAND2_1098 N3818 N3677 N1926 and 
XAND2_1106 N3838 N3789 N3731 and 
XAND2_1107 N3845 N3803 N3753 and 
XAND2_1122 N3912 N3786 N1912 and 
XAND2_1124 N3916 N3800 N1917 and 
XAND4_1130 N3926 N3721 N3838 N3734 N3740 and 
XAND4_1133 N3932 N3743 N3845 N3756 N3762 and 
XAND2_1156 N4028 N3932 N3926 and 
XAND2_1178 N4056 N3932 N2304 and 
XAND2_1199 N4091 N3996 N1926 and 
XAND2_1203 N4104 N4073 N4074 and 
XAND2_1238 N4186 N330 N4094 and 
XAND2_1239 N4189 N4146 N2230 and 
XAND2_1241 N4191 N4148 N2232 and 
XAND2_1242 N4192 N4149 N2233 and 
XAND2_1243 N4193 N4150 N2234 and 
XAND2_1245 N4195 N4152 N2236 and 
XAND2_1246 N4196 N4153 N2237 and 
XAND2_1254 N4238 N4128 N3917 and 
XAND2_1257 N4242 N330 N4123 and 
XAND2_1267 N4283 N4167 N4035 and 
XAND2_1268 N4284 N4174 N4035 and 
XAND2_1274 N4303 N4252 N2231 and 
XAND2_1275 N4304 N4256 N2235 and 
XAND3_1278 N4316 N4174 N4213 N4203 and 
XAND2_1279 N4317 N4174 N4209 and 
XAND3_1280 N4318 N4223 N4128 N4218 and 
XAND2_1281 N4319 N4223 N4128 and 
XAND2_1282 N4322 N4167 N4209 and 
XAND3_1289 N4331 N330 N4094 N4295 and 
XAND2_1290 N4335 N4251 N2730 and 
XAND2_1291 N4338 N4253 N2734 and 
XAND2_1292 N4341 N4254 N2736 and 
XAND2_1293 N4344 N4255 N2738 and 
XAND2_1294 N4347 N4257 N2742 and 
XAND2_1295 N4350 N4258 N2744 and 
XAND2_1302 N4371 N4223 N4223 and 
XAND2_1305 N4387 N330 N4317 and 
XAND2_1306 N4390 N330 N4318 and 
XAND2_1314 N4435 N330 N4316 and 
XAND4_1316 N4443 N4174 N4305 N4203 N4213 and 
XAND2_1328 N4472 N4376 N2732 and 
XAND2_1329 N4475 N4377 N2740 and 
XAND2_1335 N4493 N330 N4319 and 
XAND2_1337 N4497 N4287 N4398 and 
XAND2_1338 N4498 N4442 N1769 and 
XAND3_1356 N4545 N330 N4319 N4496 and 
XAND2_1357 N4549 N330 N4443 and 
XAND2_1363 N4563 N4310 N4465 and 
XAND3_1381 N4608 N330 N4284 N4562 and 
XAND2_1396 N4647 N4559 N2128 and 
XAND2_1397 N4650 N4559 N2743 and 
XAND2_1401 N4667 N4587 N4628 and 
XAND2_1444 N4772 N330 N4704 and 
XAND2_1451 N4794 N4711 N2124 and 
XAND2_1452 N4797 N4711 N2735 and 
XAND2_1453 N4800 N4717 N2127 and 
XAND2_1455 N4808 N4717 N4468 and 
XAND2_1457 N4815 N4727 N4778 and 
XAND2_1466 N4831 N4743 N2122 and 
XAND2_1467 N4838 N4757 N2126 and 
XAND4_1488 N4901 N4717 N4757 N4823 N4564 and 
XAND2_1493 N4907 N4818 N2123 and 
XAND2_1494 N4913 N4823 N2125 and 
XAND2_1495 N4916 N4818 N4644 and 
XAND2_1497 N4921 N4895 N2184 and 
XAND2_1507 N4944 N4876 N4920 and 
XAND2_1514 N4954 N4926 N2737 and 
XAND2_1515 N4957 N4931 N2741 and 
XAND2_1521 N4973 N4953 N2739 and 
XAND4_1526 N4982 N4818 N4743 N4946 N4722 and 
XAND2_1529 N4985 N4946 N2121 and 
XAND2_1534 N5002 N4964 N4980 and 
XAND2_1536 N5010 N4983 N2731 and 
XAND2_1537 N5013 N4984 N2733 and 
XAND2_1542 N5030 N5007 N2729 and 
XAND2_1545 N5045 N4988 N5026 and 
XAND2_1547 N5047 N4996 N5029 and 
XAND4_1552 N5066 N4730 N4999 N5021 N4991 and 
XAND2_1554 N5078 N5018 N5046 and 
XAND2_1560 N5102 N5050 N5050 and 
XAND2_1566 N5114 N5050 N1461 and 
XAND2_1568 N5120 N5080 N5080 and 
XAND2_1569 N5121 N5058 N5103 and 
XAND2_1572 N5128 N1461 N5080 and 
XAND4_1573 N5133 N4880 N5061 N5055 N5085 and 
XAND3_1574 N5136 N5055 N5085 N1464 and 
XAND2_1582 N5166 N5066 N5133 and 
XAND2_1583 N5173 N5066 N5133 and 
XAND2_1601 N5215 N213 N5193 and 
XAND3_1630 N5277 N5236 N5254 N2307 and 
XAND3_1631 N5278 N5250 N5254 N2310 and 
XAND3_1635 N5285 N5236 N5266 N2310 and 
XAND3_1636 N5286 N5250 N5266 N2307 and 
XAND2_1668 N5360 N5356 N5357 and 
XNAND2_54 N891 N20 N200 nand 
XNAND2_58 N913 N1 N13 nand 
XNAND3_59 N914 N1 N20 N33 nand 
XNAND2_87 N1251 N226 N655 nand 
XNAND2_88 N1252 N232 N670 nand 
XNAND2_89 N1253 N238 N690 nand 
XNAND2_90 N1254 N244 N706 nand 
XNAND2_91 N1255 N250 N715 nand 
XNAND2_92 N1256 N257 N727 nand 
XNAND2_93 N1257 N264 N740 nand 
XNAND2_94 N1258 N270 N753 nand 
XNAND2_99 N1263 N679 N686 nand 
XNAND2_100 N1264 N736 N749 nand 
XNAND2_101 N1267 N683 N699 nand 
XNAND3_114 N1328 N772 N786 N798 nand 
XNAND2_115 N1331 N772 N786 nand 
XNAND3_117 N1337 N782 N794 N45 nand 
XNAND3_118 N1338 N842 N848 N854 nand 
XNAND3_121 N1343 N861 N867 N870 nand 
XNAND2_169 N1505 N702 N1250 nand 
XNAND2_172 N1509 N929 N1259 nand 
XNAND2_173 N1510 N926 N1260 nand 
XNAND2_174 N1511 N935 N1261 nand 
XNAND2_175 N1512 N932 N1262 nand 
XNAND2_218 N1691 N941 N1467 nand 
XNAND2_219 N1692 N938 N1468 nand 
XNAND2_220 N1693 N947 N1469 nand 
XNAND2_221 N1694 N944 N1470 nand 
XNAND2_224 N1715 N1509 N1510 nand 
XNAND2_225 N1718 N1511 N1512 nand 
XNAND2_226 N1721 N1507 N1508 nand 
XNAND2_228 N1725 N763 N1340 nand 
XNAND2_230 N1727 N1493 N1271 nand 
XNAND2_233 N1730 N1499 N1272 nand 
XNAND2_235 N1735 N87 N1264 nand 
XNAND2_238 N1738 N1325 N821 nand 
XNAND2_239 N1747 N1325 N825 nand 
XNAND3_240 N1756 N772 N1279 N798 nand 
XNAND4_241 N1761 N772 N786 N798 N1302 nand 
XNAND2_242 N1764 N1496 N1339 nand 
XNAND2_244 N1766 N1502 N1344 nand 
XNAND2_269 N1815 N1298 N1302 nand 
XNAND2_270 N1818 N821 N1302 nand 
XNAND3_271 N1821 N772 N1279 N1179 nand 
XNAND3_272 N1824 N786 N794 N1298 nand 
XNAND2_273 N1833 N786 N1298 nand 
XNAND2_322 N1912 N1452 N213 nand 
XNAND3_324 N1917 N1452 N213 N343 nand 
XNAND3_326 N1926 N1452 N213 N343 nand 
XNAND2_328 N1933 N1691 N1692 nand 
XNAND2_329 N1936 N1693 N1694 nand 
XNAND2_331 N1940 N1471 N1474 nand 
XNAND2_339 N1960 N953 N1728 nand 
XNAND2_340 N1961 N959 N1731 nand 
XNAND2_342 N1981 N956 N1765 nand 
XNAND2_343 N1982 N962 N1767 nand 
XNAND2_387 N2133 N950 N1939 nand 
XNAND2_388 N2134 N1478 N1941 nand 
XNAND2_389 N2135 N1475 N1942 nand 
XNAND2_390 N2136 N1484 N1943 nand 
XNAND2_391 N2137 N1481 N1944 nand 
XNAND2_392 N2138 N1490 N1945 nand 
XNAND2_393 N2139 N1487 N1946 nand 
XNAND2_399 N2146 N1727 N1960 nand 
XNAND2_400 N2147 N1730 N1961 nand 
XNAND2_413 N2178 N1764 N1981 nand 
XNAND2_414 N2179 N1766 N1982 nand 
XNAND2_419 N2185 N1358 N1812 nand 
XNAND2_420 N2188 N1358 N1809 nand 
XNAND2_421 N2191 N1353 N1812 nand 
XNAND2_422 N2194 N1353 N1809 nand 
XNAND2_423 N2197 N1358 N1806 nand 
XNAND2_424 N2200 N1358 N1803 nand 
XNAND2_425 N2203 N1353 N1806 nand 
XNAND2_426 N2206 N1353 N1803 nand 
XNAND2_456 N2310 N1930 N350 nand 
XNAND2_461 N2325 N1940 N2133 nand 
XNAND2_462 N2328 N2134 N2135 nand 
XNAND2_463 N2331 N2136 N2137 nand 
XNAND2_464 N2334 N2138 N2139 nand 
XNAND2_465 N2341 N1936 N2141 nand 
XNAND2_466 N2342 N1933 N2142 nand 
XNAND2_509 N2471 N2341 N2342 nand 
XNAND2_591 N2748 N2316 N2467 nand 
XNAND2_592 N2749 N2313 N2468 nand 
XNAND2_593 N2750 N2322 N2469 nand 
XNAND2_594 N2751 N2319 N2470 nand 
XNAND2_595 N2754 N2328 N2474 nand 
XNAND2_596 N2755 N2325 N2475 nand 
XNAND2_597 N2756 N2334 N2476 nand 
XNAND2_598 N2757 N2331 N2477 nand 
XNAND2_609 N2966 N2748 N2749 nand 
XNAND2_610 N2967 N2750 N2751 nand 
XNAND2_612 N2973 N2754 N2755 nand 
XNAND2_613 N2977 N2756 N2757 nand 
XNAND2_778 N3195 N2745 N2962 nand 
XNAND2_1059 N3705 N3475 N3630 nand 
XNAND2_1060 N3706 N3472 N3631 nand 
XNAND2_1061 N3707 N3481 N3626 nand 
XNAND2_1062 N3708 N3478 N3627 nand 
XNAND2_1083 N3773 N3705 N3706 nand 
XNAND2_1084 N3774 N3707 N3708 nand 
XNAND2_1085 N3775 N3700 N3628 nand 
XNAND2_1087 N3777 N3697 N3629 nand 
XNAND2_1103 N3833 N3773 N3774 nand 
XNAND2_1104 N3834 N3487 N3776 nand 
XNAND2_1105 N3835 N3484 N3778 nand 
XNAND2_1114 N3884 N3775 N3834 nand 
XNAND2_1115 N3885 N3777 N3835 nand 
XNAND2_1116 N3894 N3721 N3786 nand 
XNAND2_1117 N3895 N3743 N3800 nand 
XNAND3_1131 N3930 N3721 N3838 N3654 nand 
XNAND4_1132 N3931 N3658 N3838 N3734 N3721 nand 
XNAND3_1134 N3935 N3743 N3845 N3673 nand 
XNAND4_1135 N3936 N3677 N3845 N3756 N3743 nand 
XNAND2_1152 N3987 N3924 N3925 nand 
XNAND4_1153 N3992 N3765 N3894 N3930 N3931 nand 
XNAND4_1154 N3996 N3766 N3895 N3935 N3936 nand 
XNAND2_1157 N4029 N3953 N3681 nand 
XNAND2_1158 N4030 N3959 N3686 nand 
XNAND2_1159 N4031 N3965 N3688 nand 
XNAND2_1160 N4032 N3971 N3689 nand 
XNAND2_1161 N4033 N3977 N3693 nand 
XNAND2_1162 N4034 N3983 N3695 nand 
XNAND2_1166 N4044 N3956 N3685 nand 
XNAND2_1169 N4047 N3962 N3687 nand 
XNAND2_1174 N4052 N3980 N3694 nand 
XNAND2_1177 N4055 N3974 N3696 nand 
XNAND2_1180 N4058 N3950 N3703 nand 
XNAND2_1184 N4066 N3968 N3704 nand 
XNAND2_1187 N4073 N3926 N3996 nand 
XNAND2_1189 N4075 N3493 N4042 nand 
XNAND2_1190 N4076 N3499 N4045 nand 
XNAND2_1191 N4077 N3505 N4048 nand 
XNAND2_1192 N4078 N3511 N4049 nand 
XNAND2_1193 N4079 N3517 N4050 nand 
XNAND2_1194 N4080 N3523 N4053 nand 
XNAND2_1195 N4085 N3496 N4043 nand 
XNAND2_1196 N4086 N3502 N4046 nand 
XNAND2_1197 N4088 N3520 N4051 nand 
XNAND2_1198 N4090 N3514 N4054 nand 
XNAND2_1201 N4098 N3490 N4057 nand 
XNAND2_1202 N4101 N3508 N4065 nand 
XNAND2_1204 N4105 N4075 N4029 nand 
XNAND2_1205 N4106 N4062 N3899 nand 
XNAND2_1206 N4107 N4076 N4030 nand 
XNAND2_1207 N4108 N4077 N4031 nand 
XNAND2_1208 N4109 N4078 N4032 nand 
XNAND2_1209 N4110 N4070 N3906 nand 
XNAND2_1210 N4111 N4079 N4033 nand 
XNAND2_1211 N4112 N4080 N4034 nand 
XNAND2_1213 N4114 N4059 N3898 nand 
XNAND2_1215 N4116 N4085 N4044 nand 
XNAND2_1216 N4119 N4086 N4047 nand 
XNAND2_1218 N4123 N4088 N4052 nand 
XNAND2_1220 N4127 N4067 N3911 nand 
XNAND2_1221 N4128 N4090 N4055 nand 
XNAND2_1222 N4139 N4098 N4058 nand 
XNAND2_1223 N4142 N4101 N4066 nand 
XNAND2_1226 N4147 N3824 N4115 nand 
XNAND2_1230 N4151 N3830 N4122 nand 
XNAND2_1233 N4154 N3821 N4113 nand 
XNAND2_1234 N4161 N3827 N4126 nand 
XNAND2_1240 N4190 N4147 N4106 nand 
XNAND2_1244 N4194 N4151 N4110 nand 
XNAND2_1247 N4197 N4154 N4114 nand 
XNAND2_1252 N4218 N4161 N4127 nand 
XNAND2_1283 N4325 N4203 N3913 nand 
XNAND3_1284 N4326 N4203 N4213 N4167 nand 
XNAND2_1285 N4327 N4218 N3815 nand 
XNAND3_1286 N4328 N4218 N4128 N3917 nand 
XNAND2_1287 N4329 N4247 N4013 nand 
XNAND2_1307 N4393 N3921 N4330 nand 
XNAND3_1310 N4416 N3920 N4325 N4326 nand 
XNAND3_1312 N4427 N3948 N4327 N4328 nand 
XNAND2_1317 N4446 N4305 N3809 nand 
XNAND3_1318 N4447 N4305 N4200 N3913 nand 
XNAND4_1319 N4448 N4305 N4200 N4213 N4167 nand 
XNAND2_1321 N4458 N4329 N4393 nand 
XNAND2_1324 N4463 N4371 N1460 nand 
XNAND2_1333 N4487 N4359 N4299 nand 
XNAND4_1339 N4503 N3947 N4446 N4447 N4448 nand 
XNAND2_1343 N4509 N4421 N4452 nand 
XNAND2_1345 N4511 N4427 N4241 nand 
XNAND2_1346 N4515 N965 N4464 nand 
XNAND2_1348 N4527 N4416 N4484 nand 
XNAND2_1349 N4528 N4182 N4486 nand 
XNAND2_1351 N4530 N4430 N4491 nand 
XNAND2_1358 N4552 N4356 N4508 nand 
XNAND2_1359 N4555 N4142 N4510 nand 
XNAND2_1361 N4559 N4463 N4515 nand 
XNAND2_1367 N4572 N4353 N4526 nand 
XNAND2_1368 N4573 N4362 N4529 nand 
XNAND2_1369 N4576 N4487 N4528 nand 
XNAND2_1375 N4593 N4552 N4509 nand 
XNAND2_1378 N4599 N4555 N4511 nand 
XNAND2_1384 N4619 N4572 N4527 nand 
XNAND2_1385 N4623 N4573 N4530 nand 
XNAND2_1387 N4629 N4569 N4506 nand 
XNAND2_1390 N4636 N4576 N4291 nand 
XNAND2_1392 N4641 N4581 N4461 nand 
XNAND2_1394 N4643 N4584 N4462 nand 
XNAND2_1402 N4668 N4413 N4630 nand 
XNAND2_1404 N4670 N4616 N4239 nand 
XNAND2_1406 N4674 N4619 N4507 nand 
XNAND2_1407 N4675 N4186 N4635 nand 
XNAND2_1409 N4677 N4623 N4558 nand 
XNAND2_1410 N4678 N4365 N4640 nand 
XNAND2_1411 N4679 N4368 N4642 nand 
XNAND2_1413 N4688 N4613 N4568 nand 
XNAND2_1418 N4704 N4629 N4668 nand 
XNAND2_1419 N4705 N4139 N4669 nand 
XNAND2_1422 N4708 N4435 N4673 nand 
XNAND2_1423 N4711 N4675 N4636 nand 
XNAND2_1424 N4716 N4493 N4676 nand 
XNAND2_1425 N4717 N4678 N4641 nand 
XNAND2_1426 N4721 N4679 N4643 nand 
XNAND2_1431 N4733 N4479 N4687 nand 
XNAND2_1432 N4740 N4705 N4670 nand 
XNAND2_1433 N4743 N4708 N4674 nand 
XNAND2_1435 N4748 N4691 N4596 nand 
XNAND2_1437 N4750 N4694 N4597 nand 
XNAND2_1439 N4754 N4697 N4602 nand 
XNAND2_1441 N4756 N4700 N4603 nand 
XNAND2_1442 N4757 N4716 N4677 nand 
XNAND2_1443 N4769 N4733 N4688 nand 
XNAND2_1447 N4786 N4531 N4747 nand 
XNAND2_1448 N4787 N4534 N4749 nand 
XNAND2_1449 N4788 N4537 N4753 nand 
XNAND2_1450 N4789 N4540 N4755 nand 
XNAND2_1460 N4818 N4786 N4748 nand 
XNAND2_1461 N4822 N4787 N4750 nand 
XNAND2_1462 N4823 N4788 N4754 nand 
XNAND2_1463 N4826 N4789 N4756 nand 
XNAND2_1464 N4829 N4775 N4726 nand 
XNAND2_1472 N4859 N4772 N4816 nand 
XNAND2_1473 N4860 N4769 N4817 nand 
XNAND2_1477 N4873 N4664 N4830 nand 
XNAND2_1482 N4895 N4859 N4860 nand 
XNAND2_1484 N4897 N4844 N4706 nand 
XNAND2_1486 N4899 N4847 N4707 nand 
XNAND2_1491 N4905 N4854 N4872 nand 
XNAND2_1492 N4906 N4873 N4829 nand 
XNAND2_1498 N4924 N4656 N4896 nand 
XNAND2_1499 N4925 N4659 N4898 nand 
XNAND2_1501 N4928 N4889 N4870 nand 
XNAND2_1503 N4930 N4808 N4904 nand 
XNAND2_1508 N4946 N4924 N4897 nand 
XNAND2_1509 N4949 N4925 N4899 nand 
XNAND2_1510 N4950 N4916 N4902 nand 
XNAND2_1512 N4952 N4805 N4929 nand 
XNAND2_1513 N4953 N4930 N4905 nand 
XNAND2_1519 N4969 N4850 N4951 nand 
XNAND2_1520 N4970 N4952 N4928 nand 
XNAND2_1527 N4983 N4950 N4969 nand 
XNAND2_1557 N5094 N5039 N4885 nand 
XNAND2_1562 N5108 N4812 N5095 nand 
XNAND2_1564 N5110 N5070 N5097 nand 
XNAND2_1570 N5122 N5094 N5108 nand 
XNAND2_1571 N5125 N5042 N5109 nand 
XNAND2_1576 N5145 N5125 N5110 nand 
XNAND2_1587 N5183 N5139 N5159 nand 
XNAND2_1592 N5196 N5151 N4978 nand 
XNAND2_1594 N5198 N5154 N4979 nand 
XNAND2_1600 N5212 N5117 N5182 nand 
XNAND2_1604 N5220 N4937 N5197 nand 
XNAND2_1605 N5221 N4940 N5199 nand 
XNAND2_1607 N5223 N5184 N5201 nand 
XNAND2_1608 N5224 N5188 N5203 nand 
XNAND2_1610 N5228 N5183 N5212 nand 
XNAND2_1612 N5232 N5205 N5217 nand 
XNAND2_1614 N5234 N5209 N5219 nand 
XNAND2_1616 N5236 N5196 N5220 nand 
XNAND2_1617 N5240 N5198 N5221 nand 
XNAND2_1618 N5242 N5160 N5222 nand 
XNAND2_1619 N5243 N5163 N5225 nand 
XNAND2_1620 N5245 N5174 N5233 nand 
XNAND2_1621 N5246 N5177 N5235 nand 
XNAND2_1624 N5254 N5242 N5223 nand 
XNAND2_1625 N5257 N5243 N5224 nand 
XNAND2_1626 N5258 N5232 N5245 nand 
XNAND2_1627 N5261 N5234 N5246 nand 
XNAND2_1634 N5284 N5269 N5253 nand 
XNAND2_1639 N5295 N5228 N5283 nand 
XNAND2_1643 N5309 N5295 N5284 nand 
XNAND2_1652 N5340 N5324 N5323 nand 
XNAND2_1653 N5341 N5327 N5322 nand 
XNAND2_1656 N5348 N5332 N5313 nand 
XNAND2_1657 N5349 N5335 N5312 nand 
XNAND2_1658 N5350 N5303 N5345 nand 
XNAND2_1659 N5351 N5306 N5344 nand 
XNAND2_1662 N5354 N5289 N5353 nand 
XNAND2_1663 N5355 N5292 N5352 nand 
XNAND2_1664 N5356 N5350 N5340 nand 
XNAND2_1665 N5357 N5351 N5341 nand 
XNAND2_1666 N5358 N5348 N5354 nand 
XNAND2_1667 N5359 N5349 N5355 nand 
XNAND2_1669 N5361 N5358 N5359 nand 
XOR2_19 N768 N257 N264 or 
XOR2_34 N835 N41 N45 or 
XOR2_57 N896 N349 N33 or 
XOR2_80 N1117 N820 N20 or 
XOR2_81 N1179 N895 N169 or 
XOR2_83 N1197 N915 N1 or 
XOR2_85 N1219 N916 N1 or 
XOR2_131 N1353 N883 N886 or 
XOR2_145 N1409 N1 N1196 or 
XOR2_151 N1461 N920 N923 or 
XOR3_345 N1986 N1581 N1787 N1788 or 
XOR3_346 N1987 N1586 N1791 N1792 or 
XOR3_347 N1988 N1589 N1793 N1794 or 
XOR3_348 N1989 N1592 N1795 N1796 or 
XOR3_349 N1990 N1597 N1799 N1800 or 
XOR3_350 N1991 N1600 N1801 N1802 or 
XOR3_440 N2238 N2022 N1643 N2023 or 
XOR3_441 N2239 N2024 N1644 N2025 or 
XOR3_442 N2240 N2026 N1645 N2027 or 
XOR3_443 N2241 N2028 N1646 N2029 or 
XOR3_444 N2242 N2030 N1647 N2031 or 
XOR3_445 N2243 N2032 N1648 N2033 or 
XOR3_446 N2244 N2034 N1649 N2035 or 
XOR3_447 N2245 N2036 N1650 N2037 or 
XOR2_514 N2478 N2348 N1729 or 
XOR3_552 N2648 N2270 N1870 N2068 or 
XOR3_554 N2656 N2417 N2418 N2419 or 
XOR3_555 N2659 N2420 N2421 N2422 or 
XOR3_556 N2662 N2277 N1880 N2078 or 
XOR3_558 N2670 N2425 N2426 N2427 or 
XOR3_559 N2673 N2282 N1885 N2083 or 
XOR3_561 N2681 N2430 N2431 N2432 or 
XOR3_562 N2684 N2287 N1890 N2088 or 
XOR3_564 N2692 N2435 N2436 N2437 or 
XOR3_565 N2697 N2438 N2439 N2440 or 
XOR3_566 N2702 N2294 N1900 N2098 or 
XOR3_568 N2710 N2443 N2444 N2445 or 
XOR3_569 N2715 N2299 N1905 N2103 or 
XOR3_571 N2723 N2448 N2449 N2450 or 
XOR3_589 N2745 N2376 N1983 N2379 or 
XOR3_602 N2768 N2486 N1789 N1790 or 
XOR3_603 N2769 N2487 N1797 N1798 or 
XOR3_780 N3206 N2980 N2145 N2347 or 
XOR3_935 N3415 N3119 N1875 N2073 or 
XOR3_949 N3447 N3149 N1895 N2093 or 
XOR2_959 N3471 N3194 N3383 or 
XOR3_979 N3535 N3388 N2151 N2351 or 
XOR3_997 N3557 N3413 N3414 N3118 or 
XOR3_998 N3568 N3429 N3430 N3134 or 
XOR3_999 N3573 N3437 N3438 N3141 or 
XOR3_1000 N3578 N3445 N3446 N3148 or 
XOR3_1001 N3589 N3461 N3462 N3164 or 
XOR3_1002 N3594 N3469 N3470 N3171 or 
XOR3_1012 N3634 N3537 N3538 N2398 or 
XOR2_1013 N3635 N3539 N3540 or 
XOR2_1014 N3636 N3541 N3542 or 
XOR2_1015 N3637 N3543 N3544 or 