$ Spice netlist generated by v2lvs
$ v2013.3_28.19    Tue Sep 3 16:44:15 PDT 2013

.SUBCKT c5315d N11 N14 N111 N114 N117 N120 N123 N124 N125 N126 N127 N131 N134 
+ N137 N140 N143 N146 N149 N152 N153 N154 N161 N164 N167 N170 N173 N176 N179 
+ N180 N181 N182 N183 N186 N187 N188 N191 N194 N197 N1100 N1103 N1106 N1109 
+ N1112 N1113 N1114 N1115 N1116 N1117 N1118 N1119 N1120 N1121 N1122 N1123 N1126 
+ N1127 N1128 N1129 N1130 N1131 N1132 N1135 N1136 N1137 N1140 N1141 N1145 N1146 
+ N1149 N1152 N1155 N1158 N1161 N1164 N1167 N1170 N1173 N1176 N1179 N1182 N1185 
+ N1188 N1191 N1194 N1197 N1200 N1203 N1206 N1209 N1210 N1217 N1218 N1225 N1226 
+ N1233 N1234 N1241 N1242 N1245 N1248 N1251 N1254 N1257 N1264 N1265 N1272 N1273 
+ N1280 N1281 N1288 N1289 N1292 N1293 N1299 N1302 N1307 N1308 N1315 N1316 N1323 
+ N1324 N1331 N1332 N1335 N1338 N1341 N1348 N1351 N1358 N1361 N1366 N1369 N1372 
+ N1373 N1374 N1386 N1389 N1400 N1411 N1422 N1435 N1446 N1457 N1468 N1479 N1490 
+ N1503 N1514 N1523 N1534 N1545 N1549 N1552 N1556 N1559 N1562 N1566 N1571 N1574 
+ N1577 N1580 N1583 N1588 N1591 N1592 N1595 N1596 N1597 N1598 N1599 N1603 N1607 
+ N1610 N1613 N1616 N1619 N1625 N1631 N1709 N1816 N11066 N11137 N11138 N11139 
+ N11140 N11141 N11142 N11143 N11144 N11145 N11147 N11152 N11153 N11154 N11155 
+ N11972 N12054 N12060 N12061 N12139 N12142 N12309 N12387 N12527 N12584 N12590 
+ N12623 N13357 N13358 N13359 N13360 N13604 N13613 N14272 N14275 N14278 N14279 
+ N14737 N14738 N14739 N14740 N15240 N15388 N16641 N16643 N16646 N16648 N16716 
+ N16877 N16924 N16925 N16926 N16927 N17015 N17363 N17365 N17432 N17449 N17465 
+ N17466 N17467 N17469 N17470 N17471 N17472 N17473 N17474 N17476 N17503 N17504 
+ N17506 N17511 N17515 N17516 N17517 N17518 N17519 N17520 N17521 N17522 N17600 
+ N17601 N17602 N17603 N17604 N17605 N17606 N17607 N17626 N17698 N17699 N17700 
+ N17701 N17702 N17703 N17704 N17705 N17706 N17707 N17735 N17736 N17737 N17738 
+ N17739 N17740 N17741 N17742 N17754 N17755 N17756 N17757 N17758 N17759 N17760 
+ N17761 N18075 N18076 N18123 N18124 N18127 N18128 N21 N24 N211 N214 N217 N220 
+ N223 N224 N225 N226 N227 N231 N234 N237 N240 N243 N246 N249 N252 N253 N254 
+ N261 N264 N267 N270 N273 N276 N279 N280 N281 N282 N283 N286 N287 N288 N291 
+ N294 N297 N2100 N2103 N2106 N2109 N2112 N2113 N2114 N2115 N2116 N2117 N2118 
+ N2119 N2120 N2121 N2122 N2123 N2126 N2127 N2128 N2129 N2130 N2131 N2132 N2135 
+ N2136 N2137 N2140 N2141 N2145 N2146 N2149 N2152 N2155 N2158 N2161 N2164 N2167 
+ N2170 N2173 N2176 N2179 N2182 N2185 N2188 N2191 N2194 N2197 N2200 N2203 N2206 
+ N2209 N2210 N2217 N2218 N2225 N2226 N2233 N2234 N2241 N2242 N2245 N2248 N2251 
+ N2254 N2257 N2264 N2265 N2272 N2273 N2280 N2281 N2288 N2289 N2292 N2293 N2299 
+ N2302 N2307 N2308 N2315 N2316 N2323 N2324 N2331 N2332 N2335 N2338 N2341 N2348 
+ N2351 N2358 N2361 N2366 N2369 N2372 N2373 N2374 N2386 N2389 N2400 N2411 N2422 
+ N2435 N2446 N2457 N2468 N2479 N2490 N2503 N2514 N2523 N2534 N2545 N2549 N2552 
+ N2556 N2559 N2562 N2566 N2571 N2574 N2577 N2580 N2583 N2588 N2591 N2592 N2595 
+ N2596 N2597 N2598 N2599 N2603 N2607 N2610 N2613 N2616 N2619 N2625 N2631 N2709 
+ N2816 N21066 N21137 N21138 N21139 N21140 N21141 N21142 N21143 N21144 N21145 
+ N21147 N21152 N21153 N21154 N21155 N21972 N22054 N22060 N22061 N22139 N22142 
+ N22309 N22387 N22527 N22584 N22590 N22623 N23357 N23358 N23359 N23360 N23604 
+ N23613 N24272 N24275 N24278 N24279 N24737 N24738 N24739 N24740 N25240 N25388 
+ N26641 N26643 N26646 N26648 N26716 N26877 N26924 N26925 N26926 N26927 N27015 
+ N27363 N27365 N27432 N27449 N27465 N27466 N27467 N27469 N27470 N27471 N27472 
+ N27473 N27474 N27476 N27503 N27504 N27506 N27511 N27515 N27516 N27517 N27518 
+ N27519 N27520 N27521 N27522 N27600 N27601 N27602 N27603 N27604 N27605 N27606 
+ N27607 N27626 N27698 N27699 N27700 N27701 N27702 N27703 N27704 N27705 N27706 
+ N27707 N27735 N27736 N27737 N27738 N27739 N27740 N27741 N27742 N27754 N27755 
+ N27756 N27757 N27758 N27759 N27760 N27761 N28075 N28076 N28123 N28124 N28127 
+ N28128 
XAND2_13 N11042 N1135 N1631 and 
XAND2_113 N11140 N1552 N1562 and 
XAND2_120 N11147 N1141 N1145 and 
XAND2_123 N11150 N11043 N127 and 
XAND2_124 N11151 N1386 N1556 and 
XAND4_129 N11156 N1386 N1559 N1556 N1552 and 
XAND2_171 N11475 N127 N131 and 
XAND2_197 N11583 N131 N127 and 
XAND2_1192 N12054 N1136 N11148 and 
XAND2_1198 N12349 N11104 N1514 and 
XAND3_1203 N12585 N1170 N11161 N11173 and 
XAND3_1204 N12586 N1173 N11161 N11173 and 
XAND3_1205 N12587 N1167 N11161 N11173 and 
XAND3_1206 N12588 N1164 N11161 N11173 and 
XAND3_1207 N12589 N1161 N11161 N11173 and 
XAND3_1209 N12591 N1185 N11185 N11197 and 
XAND3_1210 N12592 N1158 N11185 N11197 and 
XAND3_1211 N12593 N1152 N11185 N11197 and 
XAND3_1212 N12594 N1146 N11185 N11197 and 
XAND3_1213 N12595 N1170 N11223 N11235 and 
XAND3_1214 N12596 N1173 N11223 N11235 and 
XAND3_1215 N12597 N1167 N11223 N11235 and 
XAND3_1216 N12598 N1164 N11223 N11235 and 
XAND3_1217 N12599 N1161 N11223 N11235 and 
XAND3_1218 N12600 N1185 N11247 N11259 and 
XAND3_1219 N12601 N1158 N11247 N11259 and 
XAND3_1220 N12602 N1152 N11247 N11259 and 
XAND3_1221 N12603 N1146 N11247 N11259 and 
XAND3_1222 N12604 N1106 N11731 N11743 and 
XAND3_1223 N12605 N161 N11327 N11339 and 
XAND3_1224 N12606 N1106 N11697 N11709 and 
XAND3_1225 N12607 N149 N11697 N11709 and 
XAND3_1226 N12608 N1103 N11697 N11709 and 
XAND3_1227 N12609 N140 N11697 N11709 and 
XAND3_1228 N12610 N137 N11697 N11709 and 
XAND3_1229 N12611 N120 N11327 N11339 and 
XAND3_1230 N12612 N117 N11327 N11339 and 
XAND3_1231 N12613 N170 N11327 N11339 and 
XAND3_1232 N12614 N164 N11327 N11339 and 
XAND3_1233 N12615 N149 N11731 N11743 and 
XAND3_1234 N12616 N1103 N11731 N11743 and 
XAND3_1235 N12617 N140 N11731 N11743 and 
XAND3_1236 N12618 N137 N11731 N11743 and 
XAND3_1237 N12619 N120 N11351 N11363 and 
XAND3_1238 N12620 N117 N11351 N11363 and 
XAND3_1239 N12621 N170 N11351 N11363 and 
XAND3_1240 N12622 N164 N11351 N11363 and 
XAND3_1242 N12624 N1123 N11758 N1599 and 
XAND2_1243 N12625 N11777 N11785 and 
XAND3_1244 N12626 N161 N11351 N11363 and 
XAND2_1245 N12627 N11761 N11769 and 
XAND3_1271 N12703 N1179 N11185 N11197 and 
XAND3_1292 N12778 N1179 N11247 N11259 and 
XAND3_1305 N12831 N11104 N1457 N11378 and 
XAND3_1306 N12832 N11104 N1468 N11384 and 
XAND3_1307 N12833 N11104 N1422 N11390 and 
XAND3_1308 N12834 N11104 N1435 N11396 and 
XAND2_1309 N12835 N11067 N11375 and 
XAND2_1310 N12836 N11067 N11381 and 
XAND2_1311 N12837 N11067 N11387 and 
XAND2_1312 N12838 N11067 N11393 and 
XAND3_1321 N12847 N11104 N1389 N11418 and 
XAND3_1322 N12848 N11104 N1400 N11424 and 
XAND3_1323 N12849 N11104 N1411 N11430 and 
XAND3_1324 N12850 N11104 N1374 N11436 and 
XAND2_1325 N12851 N11067 N11415 and 
XAND2_1326 N12852 N11067 N11421 and 
XAND2_1327 N12853 N11067 N11427 and 
XAND2_1328 N12854 N11067 N11433 and 
XAND2_1331 N12867 N1292 N11455 and 
XAND2_1332 N12868 N1288 N11455 and 
XAND2_1333 N12869 N1280 N11455 and 
XAND2_1334 N12870 N1272 N11455 and 
XAND2_1335 N12871 N1264 N11455 and 
XAND2_1336 N12872 N1241 N11462 and 
XAND2_1337 N12873 N1233 N11462 and 
XAND2_1338 N12874 N1225 N11462 and 
XAND2_1339 N12875 N1217 N11462 and 
XAND2_1340 N12876 N1209 N11462 and 
XAND2_1350 N12907 N11303 N11495 and 
XAND3_1351 N12908 N11303 N1479 N11501 and 
XAND3_1352 N12909 N11303 N1490 N11507 and 
XAND2_1353 N12910 N11663 N11492 and 
XAND2_1354 N12911 N11663 N11498 and 
XAND2_1355 N12912 N11663 N11504 and 
XAND3_1362 N12919 N11104 N1503 N11513 and 
XAND3_1364 N12921 N11104 N1523 N11519 and 
XAND3_1365 N12922 N11104 N1534 N11525 and 
XAND2_1366 N12923 N11067 N11510 and 
XAND2_1367 N12924 N11067 N11516 and 
XAND2_1368 N12925 N11067 N11522 and 
XAND3_1377 N12934 N11303 N1389 N11545 and 
XAND3_1378 N12935 N11303 N1400 N11551 and 
XAND3_1379 N12936 N11303 N1411 N11557 and 
XAND3_1380 N12937 N11303 N1374 N11563 and 
XAND2_1381 N12938 N11663 N11542 and 
XAND2_1382 N12939 N11663 N11548 and 
XAND2_1383 N12940 N11663 N11554 and 
XAND2_1384 N12941 N11663 N11560 and 
XAND2_1387 N12954 N1372 N11566 and 
XAND2_1388 N12955 N1366 N11566 and 
XAND2_1389 N12956 N1358 N11566 and 
XAND2_1390 N12957 N1348 N11566 and 
XAND2_1391 N12958 N1338 N11566 and 
XAND2_1392 N12959 N1331 N11573 and 
XAND2_1393 N12960 N1323 N11573 and 
XAND2_1394 N12961 N1315 N11573 and 
XAND2_1395 N12962 N1307 N11573 and 
XAND2_1396 N12963 N1299 N11573 and 
XAND2_1398 N12969 N183 N11588 and 
XAND2_1399 N12970 N186 N11588 and 
XAND2_1400 N12971 N188 N11588 and 
XAND2_1401 N12972 N188 N11588 and 
XAND3_1408 N12979 N11315 N1503 N11597 and 
XAND2_1409 N12980 N11315 N1514 and 
XAND3_1410 N12981 N11315 N1523 N11603 and 
XAND3_1411 N12982 N11315 N1534 N11609 and 
XAND2_1412 N12983 N11675 N11594 and 
XAND2_1414 N12985 N11675 N11600 and 
XAND2_1415 N12986 N11675 N11606 and 
XAND2_1422 N12993 N11315 N11615 and 
XAND3_1423 N12994 N11315 N1479 N11621 and 
XAND3_1424 N12995 N11315 N1490 N11627 and 
XAND2_1425 N12996 N11675 N11612 and 
XAND2_1426 N12997 N11675 N11618 and 
XAND2_1427 N12998 N11675 N11624 and 
XAND2_1434 N13013 N11315 N11630 and 
XAND2_1435 N13014 N11315 N11633 and 
XAND3_1444 N13023 N11303 N1457 N11639 and 
XAND3_1445 N13024 N11303 N1468 N11645 and 
XAND3_1446 N13025 N11303 N1422 N11651 and 
XAND3_1447 N13026 N11303 N1435 N11657 and 
XAND2_1448 N13027 N11663 N11636 and 
XAND2_1449 N13028 N11663 N11642 and 
XAND2_1450 N13029 N11663 N11648 and 
XAND2_1451 N13030 N11663 N11654 and 
XAND2_1462 N13071 N197 N11721 and 
XAND2_1463 N13072 N194 N11721 and 
XAND2_1464 N13073 N197 N11721 and 
XAND2_1465 N13074 N194 N11721 and 
XAND3_1495 N13401 N1457 N11092 N12824 and 
XAND3_1496 N13402 N1468 N11092 N12826 and 
XAND3_1497 N13403 N1422 N11092 N12828 and 
XAND3_1498 N13404 N1435 N11092 N12830 and 
XAND2_1499 N13405 N11080 N12823 and 
XAND2_1500 N13406 N11080 N12825 and 
XAND2_1501 N13407 N11080 N12827 and 
XAND2_1502 N13408 N11080 N12829 and 
XAND3_1503 N13409 N1389 N11092 N12840 and 
XAND3_1504 N13410 N1400 N11092 N12842 and 
XAND3_1505 N13411 N1411 N11092 N12844 and 
XAND3_1506 N13412 N1374 N11092 N12846 and 
XAND2_1507 N13413 N11080 N12839 and 
XAND2_1508 N13414 N11080 N12841 and 
XAND2_1509 N13415 N11080 N12843 and 
XAND2_1510 N13416 N11080 N12845 and 
XAND2_1511 N13444 N11280 N12902 and 
XAND3_1512 N13445 N1479 N11280 N12904 and 
XAND3_1513 N13446 N1490 N11280 N12906 and 
XAND2_1514 N13447 N11685 N12901 and 
XAND2_1515 N13448 N11685 N12903 and 
XAND2_1516 N13449 N11685 N12905 and 
XAND3_1517 N13450 N1503 N11092 N12914 and 
XAND3_1518 N13451 N1523 N11092 N12916 and 
XAND3_1519 N13452 N1534 N11092 N12918 and 
XAND2_1520 N13453 N11080 N12913 and 
XAND2_1521 N13454 N11080 N12915 and 
XAND2_1522 N13455 N11080 N12917 and 
XAND2_1523 N13456 N12920 N12350 and 
XAND3_1524 N13459 N1389 N11280 N12927 and 
XAND3_1525 N13460 N1400 N11280 N12929 and 
XAND3_1526 N13461 N1411 N11280 N12931 and 
XAND3_1527 N13462 N1374 N11280 N12933 and 
XAND2_1528 N13463 N11685 N12926 and 
XAND2_1529 N13464 N11685 N12928 and 
XAND2_1530 N13465 N11685 N12930 and 
XAND2_1531 N13466 N11685 N12932 and 
XAND3_1532 N13481 N1503 N11292 N12974 and 
XAND3_1534 N13483 N1523 N11292 N12976 and 
XAND3_1535 N13484 N1534 N11292 N12978 and 
XAND2_1536 N13485 N11271 N12973 and 
XAND2_1537 N13486 N11271 N12975 and 
XAND2_1538 N13487 N11271 N12977 and 
XAND2_1539 N13488 N11292 N12988 and 
XAND3_1540 N13489 N1479 N11292 N12990 and 
XAND3_1541 N13490 N1490 N11292 N12992 and 
XAND2_1542 N13491 N11271 N12987 and 
XAND2_1543 N13492 N11271 N12989 and 
XAND2_1544 N13493 N11271 N12991 and 
XAND2_1545 N13502 N11292 N12999 and 
XAND2_1546 N13503 N11292 N13006 and 
XAND3_1547 N13504 N1457 N11280 N13016 and 
XAND3_1548 N13505 N1468 N11280 N13018 and 
XAND3_1549 N13506 N1422 N11280 N13020 and 
XAND3_1550 N13507 N1435 N11280 N13022 and 
XAND2_1551 N13508 N11685 N13015 and 
XAND2_1552 N13509 N11685 N13017 and 
XAND2_1553 N13510 N11685 N13019 and 
XAND2_1554 N13511 N11685 N13021 and 
XAND2_1573 N13614 N12882 N12891 and 
XAND2_1574 N13615 N11482 N12891 and 
XAND3_1575 N13616 N1200 N12653 N11173 and 
XAND3_1576 N13617 N1203 N12653 N11173 and 
XAND3_1577 N13618 N1197 N12653 N11173 and 
XAND3_1578 N13619 N1194 N12653 N11173 and 
XAND3_1579 N13620 N1191 N12653 N11173 and 
XAND3_1580 N13621 N1182 N12681 N11197 and 
XAND3_1581 N13622 N1188 N12681 N11197 and 
XAND3_1582 N13623 N1155 N12681 N11197 and 
XAND3_1583 N13624 N1149 N12681 N11197 and 
XAND2_1584 N13625 N12882 N12891 and 
XAND2_1585 N13626 N11482 N12891 and 
XAND3_1586 N13627 N1200 N12728 N11235 and 
XAND3_1587 N13628 N1203 N12728 N11235 and 
XAND3_1588 N13629 N1197 N12728 N11235 and 
XAND3_1589 N13630 N1194 N12728 N11235 and 
XAND3_1590 N13631 N1191 N12728 N11235 and 
XAND3_1591 N13632 N1182 N12756 N11259 and 
XAND3_1592 N13633 N1188 N12756 N11259 and 
XAND3_1593 N13634 N1155 N12756 N11259 and 
XAND3_1594 N13635 N1149 N12756 N11259 and 
XAND2_1595 N13636 N12882 N12891 and 
XAND2_1596 N13637 N11482 N12891 and 
XAND3_1597 N13638 N1109 N13075 N11743 and 
XAND2_1598 N13639 N12882 N12891 and 
XAND2_1599 N13640 N11482 N12891 and 
XAND3_1600 N13641 N111 N12779 N11339 and 
XAND3_1601 N13642 N1109 N13041 N11709 and 
XAND3_1602 N13643 N146 N13041 N11709 and 
XAND3_1603 N13644 N1100 N13041 N11709 and 
XAND3_1604 N13645 N191 N13041 N11709 and 
XAND3_1605 N13646 N143 N13041 N11709 and 
XAND3_1606 N13647 N176 N12779 N11339 and 
XAND3_1607 N13648 N173 N12779 N11339 and 
XAND3_1608 N13649 N167 N12779 N11339 and 
XAND3_1609 N13650 N114 N12779 N11339 and 
XAND3_1610 N13651 N146 N13075 N11743 and 
XAND3_1611 N13652 N1100 N13075 N11743 and 
XAND3_1612 N13653 N191 N13075 N11743 and 
XAND3_1613 N13654 N143 N13075 N11743 and 
XAND3_1614 N13655 N176 N12801 N11363 and 
XAND3_1615 N13656 N173 N12801 N11363 and 
XAND3_1616 N13657 N167 N12801 N11363 and 
XAND3_1617 N13658 N114 N12801 N11363 and 
XAND3_1618 N13659 N1120 N13119 N11785 and 
XAND3_1619 N13660 N111 N12801 N11363 and 
XAND3_1620 N13661 N1118 N13097 N11769 and 
XAND3_1621 N13662 N1176 N12681 N11197 and 
XAND3_1622 N13663 N1176 N12756 N11259 and 
XAND2_1639 N13680 N1289 N12855 and 
XAND2_1640 N13681 N1281 N12855 and 
XAND2_1641 N13682 N1273 N12855 and 
XAND2_1642 N13683 N1265 N12855 and 
XAND2_1643 N13684 N1257 N12855 and 
XAND2_1644 N13685 N1234 N12861 and 
XAND2_1645 N13686 N1226 N12861 and 
XAND2_1646 N13687 N1218 N12861 and 
XAND2_1647 N13688 N1210 N12861 and 
XAND2_1648 N13689 N1206 N12861 and 
XAND2_1670 N13723 N1369 N12942 and 
XAND2_1671 N13724 N1361 N12942 and 
XAND2_1672 N13725 N1351 N12942 and 
XAND2_1673 N13726 N1341 N12942 and 
XAND2_1674 N13727 N1324 N12948 and 
XAND2_1675 N13728 N1316 N12948 and 
XAND2_1676 N13729 N1308 N12948 and 
XAND2_1677 N13730 N1302 N12948 and 
XAND2_1678 N13731 N1293 N12948 and 
XAND2_1680 N13738 N183 N12964 and 
XAND2_1681 N13739 N187 N12964 and 
XAND2_1682 N13740 N134 N12964 and 
XAND2_1683 N13741 N134 N12964 and 
XAND3_1700 N13758 N11315 N1446 N13003 and 
XAND3_1702 N13760 N11315 N1446 N13010 and 
XAND2_1703 N13761 N11675 N13000 and 
XAND2_1704 N13762 N11675 N13007 and 
XAND3_1717 N13781 N1117 N13097 N11769 and 
XAND3_1718 N13782 N1126 N13097 N11769 and 
XAND3_1719 N13783 N1127 N13097 N11769 and 
XAND3_1720 N13784 N1128 N13097 N11769 and 
XAND3_1721 N13785 N1131 N13119 N11785 and 
XAND3_1722 N13786 N1129 N13119 N11785 and 
XAND3_1723 N13787 N1119 N13119 N11785 and 
XAND3_1724 N13788 N1130 N13119 N11785 and 
XAND3_1728 N13800 N1122 N13147 N11800 and 
XAND3_1729 N13801 N1113 N13147 N11800 and 
XAND3_1730 N13802 N153 N13147 N11800 and 
XAND3_1731 N13803 N1114 N13147 N11800 and 
XAND3_1732 N13804 N1115 N13147 N11800 and 
XAND3_1733 N13805 N152 N13169 N11814 and 
XAND3_1734 N13806 N1112 N13169 N11814 and 
XAND3_1735 N13807 N1116 N13169 N11814 and 
XAND3_1736 N13808 N1121 N13169 N11814 and 
XAND3_1737 N13809 N1123 N13169 N11814 and 
XAND2_1740 N13816 N13482 N12984 and 
XAND3_1790 N13980 N1446 N11292 N13754 and 
XAND3_1791 N13981 N1446 N11292 N13756 and 
XAND2_1792 N13982 N11271 N13753 and 
XAND2_1793 N13983 N11271 N13755 and 
XAND3_1800 N13998 N13456 N13119 N13130 and 
XAND2_1806 N14031 N13828 N11583 and 
XAND3_1807 N14032 N124 N12882 N13691 and 
XAND3_1808 N14033 N125 N11482 N13691 and 
XAND3_1809 N14034 N126 N12882 N13691 and 
XAND3_1810 N14035 N181 N11482 N13691 and 
XAND2_1811 N14036 N13829 N11583 and 
XAND3_1812 N14037 N179 N12882 N13691 and 
XAND3_1813 N14038 N123 N11482 N13691 and 
XAND3_1814 N14039 N182 N12882 N13691 and 
XAND3_1815 N14040 N180 N11482 N13691 and 
XAND2_1816 N14041 N13830 N11583 and 
XAND2_1817 N14042 N13831 N11583 and 
XAND2_1818 N14067 N13732 N1514 and 
XAND2_1819 N14080 N1514 N13732 and 
XAND2_1820 N14088 N13834 N13668 and 
XAND2_1821 N14091 N13835 N13669 and 
XAND2_1822 N14094 N13836 N13670 and 
XAND2_1823 N14097 N13837 N13671 and 
XAND2_1824 N14100 N13838 N13676 and 
XAND2_1825 N14103 N13839 N13677 and 
XAND2_1826 N14106 N13840 N13678 and 
XAND2_1827 N14109 N13841 N13679 and 
XAND2_1828 N14144 N13908 N13703 and 
XAND2_1829 N14147 N13909 N13704 and 
XAND2_1831 N14153 N13914 N13711 and 
XAND2_1832 N14156 N13915 N13712 and 
XAND2_1833 N14159 N13916 N13713 and 
XAND3_1840 N14196 N13775 N13771 N13035 and 
XAND3_1841 N14197 N13987 N13119 N13130 and 
XAND2_1842 N14198 N13920 N13722 and 
XAND2_1853 N14225 N13918 N13720 and 
XAND2_1854 N14228 N13919 N13721 and 
XAND2_1855 N14231 N13991 N13770 and 
XAND2_1856 N14234 N13917 N13719 and 
XAND2_1857 N14237 N13989 N13768 and 
XAND2_1858 N14240 N13990 N13769 and 
XAND2_1859 N14243 N13988 N13767 and 
XAND2_1860 N14246 N13976 N13746 and 
XAND2_1861 N14249 N13977 N13747 and 
XAND2_1862 N14252 N13975 N13745 and 
XAND2_1863 N14255 N13978 N13751 and 
XAND2_1864 N14258 N13979 N13752 and 
XAND2_1868 N14268 N1446 N13893 and 
XAND2_1871 N14271 N13893 N1446 and 
XAND2_1880 N14280 N13887 N1457 and 
XAND2_1881 N14284 N13881 N1468 and 
XAND2_1882 N14290 N1422 N13873 and 
XAND2_1883 N14297 N13867 N1435 and 
XAND2_1884 N14298 N13861 N1389 and 
XAND2_1885 N14301 N13855 N1400 and 
XAND2_1886 N14305 N13849 N1411 and 
XAND2_1887 N14310 N13842 N1374 and 
XAND2_1888 N14316 N1457 N13887 and 
XAND2_1889 N14320 N1468 N13881 and 
XAND2_1890 N14325 N1422 N13873 and 
XAND2_1891 N14331 N1435 N13867 and 
XAND2_1892 N14332 N1389 N13861 and 
XAND2_1893 N14336 N1400 N13855 and 
XAND2_1894 N14342 N1411 N13849 and 
XAND2_1895 N14349 N1374 N13842 and 
XAND2_1899 N14379 N13956 N1479 and 
XAND2_1900 N14385 N1490 N13948 and 
XAND2_1901 N14392 N13942 N1503 and 
XAND2_1902 N14396 N13933 N1523 and 
XAND2_1903 N14400 N13927 N1534 and 
XAND2_1909 N14440 N1479 N13956 and 
XAND2_1910 N14445 N1490 N13948 and 
XAND2_1911 N14451 N1503 N13942 and 
XAND2_1912 N14456 N1523 N13933 and 
XAND2_1913 N14462 N1534 N13927 and 
XAND3_1923 N14547 N13911 N13169 N13180 and 
XAND2_1991 N14737 N14273 N12877 and 
XAND2_1992 N14738 N14274 N12877 and 
XAND2_1993 N14739 N14276 N12877 and 
XAND2_1994 N14740 N14277 N12877 and 
XAND3_1995 N14741 N14150 N11758 N11755 and 
XAND2_11000 N14939 N14515 N14185 and 
XAND2_11001 N14942 N14516 N14186 and 
XAND3_11003 N14953 N14188 N13775 N13779 and 
XAND3_11004 N14954 N13771 N14191 N13780 and 
XAND3_11005 N14955 N14191 N14188 N13038 and 
XAND3_11006 N14956 N14109 N13097 N13108 and 
XAND3_11007 N14957 N14106 N13097 N13108 and 
XAND3_11008 N14958 N14103 N13097 N13108 and 
XAND3_11009 N14959 N14100 N13097 N13108 and 
XAND3_11010 N14960 N14159 N13119 N13130 and 
XAND3_11011 N14961 N14156 N13119 N13130 and 
XAND3_11022 N14978 N13793 N13789 N14206 and 
XAND3_11023 N14979 N14203 N14200 N14209 and 
XAND3_11024 N14980 N14097 N13147 N13158 and 
XAND3_11025 N14981 N14094 N13147 N13158 and 
XAND3_11026 N14982 N14091 N13147 N13158 and 
XAND3_11027 N14983 N14088 N13147 N13158 and 
XAND3_11028 N14984 N14153 N13169 N13180 and 
XAND3_11029 N14985 N14147 N13169 N13180 and 
XAND3_11030 N14986 N14144 N13169 N13180 and 
XAND3_11031 N14987 N14150 N13169 N13180 and 
XAND4_11041 N15060 N14724 N14725 N14269 N14027 and 
XAND4_11042 N15061 N14726 N14727 N13827 N14728 and 
XAND4_11043 N15062 N14729 N14730 N14731 N14732 and 
XAND4_11044 N15063 N14733 N14734 N14735 N14736 and 
XAND2_11045 N15065 N14357 N14375 and 
XAND3_11046 N15066 N14364 N14357 N14379 and 
XAND2_11047 N15067 N14418 N14436 and 
XAND3_11048 N15068 N14425 N14418 N14440 and 
XAND2_11097 N15117 N14364 N14379 and 
XAND2_11098 N15118 N14364 N14379 and 
XAND2_11099 N15119 N154 N14405 and 
XAND2_11112 N15132 N14425 N14440 and 
XAND2_11113 N15133 N14425 N14440 and 
XAND3_11137 N15163 N14200 N13793 N14976 and 
XAND3_11138 N15164 N13789 N14203 N14977 and 
XAND3_11139 N15165 N14942 N13147 N13158 and 
XAND3_11175 N15240 N15060 N15061 N14270 and 
XAND3_11237 N15388 N15062 N15063 N15241 and 
XAND2_11282 N15726 N15166 N14512 and 
XAND2_11297 N15954 N15264 N14396 and 
XAND2_11300 N16005 N15284 N14456 and 
XAND2_11301 N16006 N15284 N14456 and 
XAND2_11320 N16071 N15470 N14316 and 
XAND3_11321 N16072 N15477 N15470 N14320 and 
XAND4_11322 N16073 N15488 N15470 N14325 N15477 and 
XAND4_11323 N16074 N15562 N14357 N14385 N14364 and 
XAND2_11324 N16075 N15389 N14280 and 
XAND3_11325 N16076 N15396 N15389 N14284 and 
XAND4_11326 N16077 N15407 N15389 N14290 N15396 and 
XAND4_11327 N16078 N15624 N14418 N14445 N14425 and 
XAND4_11329 N16080 N15396 N15418 N15407 N15389 and 
XAND2_11330 N16083 N15396 N14284 and 
XAND3_11331 N16084 N15407 N14290 N15396 and 
XAND3_11332 N16085 N15418 N15407 N15396 and 
XAND2_11333 N16086 N15396 N14284 and 
XAND3_11334 N16087 N14290 N15407 N15396 and 
XAND2_11335 N16088 N15407 N14290 and 
XAND2_11336 N16089 N15418 N15407 and 
XAND2_11337 N16090 N15407 N14290 and 
XAND5_11338 N16091 N15431 N15462 N15441 N15424 N15452 and 
XAND2_11339 N16094 N15424 N14298 and 
XAND3_11340 N16095 N15431 N15424 N14301 and 
XAND4_11341 N16096 N15441 N15424 N14305 N15431 and 
XAND5_11342 N16097 N15452 N15441 N15424 N14310 N15431 and 
XAND2_11343 N16098 N15431 N14301 and 
XAND3_11344 N16099 N15441 N14305 N15431 and 
XAND4_11345 N16100 N15452 N15441 N14310 N15431 and 
XAND5_11346 N16101 N14 N15462 N15441 N15452 N15431 and 
XAND2_11347 N16102 N14305 N15441 and 
XAND3_11348 N16103 N15452 N15441 N14310 and 
XAND4_11349 N16104 N14 N15462 N15441 N15452 and 
XAND2_11350 N16105 N15452 N14310 and 
XAND3_11351 N16106 N14 N15462 N15452 and 
XAND2_11352 N16107 N14 N15462 and 
XAND4_11353 N16108 N15549 N15488 N15477 N15470 and 
XAND2_11354 N16111 N15477 N14320 and 
XAND3_11355 N16112 N15488 N14325 N15477 and 
XAND3_11356 N16113 N15549 N15488 N15477 and 
XAND2_11357 N16114 N15477 N14320 and 
XAND3_11358 N16115 N15488 N14325 N15477 and 
XAND2_11359 N16116 N15488 N14325 and 
XAND5_11360 N16117 N15555 N15536 N15520 N15506 N15498 and 
XAND2_11361 N16120 N15498 N14332 and 
XAND3_11362 N16121 N15506 N15498 N14336 and 
XAND4_11363 N16122 N15520 N15498 N14342 N15506 and 
XAND5_11364 N16123 N15536 N15520 N15498 N14349 N15506 and 
XAND2_11365 N16124 N15506 N14336 and 
XAND3_11366 N16125 N15520 N14342 N15506 and 
XAND4_11367 N16126 N15536 N15520 N14349 N15506 and 
XAND4_11368 N16127 N15555 N15520 N15506 N15536 and 
XAND2_11369 N16128 N15506 N14336 and 
XAND3_11370 N16129 N15520 N14342 N15506 and 
XAND4_11371 N16130 N15536 N15520 N14349 N15506 and 
XAND2_11372 N16131 N15520 N14342 and 
XAND3_11373 N16132 N15536 N15520 N14349 and 
XAND3_11374 N16133 N15555 N15520 N15536 and 
XAND2_11375 N16134 N15520 N14342 and 
XAND3_11376 N16135 N15536 N15520 N14349 and 
XAND2_11377 N16136 N15536 N14349 and 
XAND2_11378 N16137 N15549 N15488 and 
XAND2_11379 N16138 N15555 N15536 and 
XAND4_11381 N16140 N14364 N15573 N15562 N14357 and 
XAND3_11382 N16143 N15562 N14385 N14364 and 
XAND3_11383 N16144 N15573 N15562 N14364 and 
XAND3_11384 N16145 N14385 N15562 N14364 and 
XAND2_11385 N16146 N15562 N14385 and 
XAND2_11386 N16147 N15573 N15562 and 
XAND2_11387 N16148 N15562 N14385 and 
XAND5_11388 N16149 N15264 N14405 N15595 N15579 N15606 and 
XAND2_11389 N16152 N15579 N14067 and 
XAND3_11390 N16153 N15264 N15579 N14396 and 
XAND4_11391 N16154 N15595 N15579 N14400 N15264 and 
XAND5_11392 N16155 N15606 N15595 N15579 N14412 N15264 and 
XAND3_11393 N16156 N15595 N14400 N15264 and 
XAND4_11394 N16157 N15606 N15595 N14412 N15264 and 
XAND5_11395 N16158 N154 N14405 N15595 N15606 N15264 and 
XAND2_11396 N16159 N14400 N15595 and 
XAND3_11397 N16160 N15606 N15595 N14412 and 
XAND4_11398 N16161 N154 N14405 N15595 N15606 and 
XAND2_11399 N16162 N15606 N14412 and 
XAND3_11400 N16163 N154 N14405 N15606 and 
XAND4_11402 N16168 N15684 N15624 N14425 N14418 and 
XAND3_11403 N16171 N15624 N14445 N14425 and 
XAND3_11404 N16172 N15684 N15624 N14425 and 
XAND3_11405 N16173 N15624 N14445 N14425 and 
XAND2_11406 N16174 N15624 N14445 and 
XAND5_11407 N16175 N14477 N15671 N15655 N15284 N15634 and 
XAND2_11408 N16178 N15634 N14080 and 
XAND3_11409 N16179 N15284 N15634 N14456 and 
XAND4_11410 N16180 N15655 N15634 N14462 N15284 and 
XAND5_11411 N16181 N15671 N15655 N15634 N14469 N15284 and 
XAND3_11412 N16182 N15655 N14462 N15284 and 
XAND4_11413 N16183 N15671 N15655 N14469 N15284 and 
XAND4_11414 N16184 N14477 N15655 N15284 N15671 and 
XAND3_11415 N16185 N15655 N14462 N15284 and 
XAND4_11416 N16186 N15671 N15655 N14469 N15284 and 
XAND2_11417 N16187 N15655 N14462 and 
XAND3_11418 N16188 N15671 N15655 N14469 and 
XAND3_11419 N16189 N14477 N15655 N15671 and 
XAND2_11420 N16190 N15655 N14462 and 
XAND3_11421 N16191 N15671 N15655 N14469 and 
XAND2_11422 N16192 N15671 N14469 and 
XAND2_11423 N16193 N15684 N15624 and 
XAND2_11424 N16194 N14477 N15671 and 
XAND3_11506 N16473 N15315 N14524 N16031 and 
XAND3_11507 N16474 N16025 N15150 N16034 and 
XAND3_11508 N16475 N15324 N14532 N16037 and 
XAND3_11509 N16476 N16028 N15157 N16040 and 
XAND2_11546 N16641 N16108 N16117 and 
XAND2_11547 N16643 N16140 N16149 and 
XAND2_11548 N16646 N16168 N16175 and 
XAND2_11549 N16648 N16080 N16091 and 
XAND2_11560 N16664 N16091 N14 and 
XAND2_11574 N16693 N16149 N154 and 
XAND3_11584 N16712 N15696 N15692 N16209 and 
XAND3_11585 N16713 N16200 N16197 N16212 and 
XAND3_11586 N16714 N15707 N15703 N16215 and 
XAND3_11587 N16715 N16206 N16203 N16218 and 
XAND3_11589 N16718 N16164 N11777 N13130 and 
XAND3_11590 N16719 N15150 N15315 N16469 and 
XAND3_11591 N16720 N14524 N16025 N16470 and 
XAND3_11592 N16721 N15157 N15324 N16471 and 
XAND3_11593 N16722 N14532 N16028 N16472 and 
XAND2_11621 N16801 N16108 N16415 and 
XAND2_11622 N16802 N16427 N16140 and 
XAND2_11623 N16803 N16397 N16080 and 
XAND2_11624 N16804 N16168 N16441 and 
XAND3_11666 N16860 N16197 N15696 N16708 and 
XAND3_11667 N16861 N15692 N16200 N16709 and 
XAND3_11668 N16862 N16203 N15707 N16710 and 
XAND3_11669 N16863 N15703 N16206 N16711 and 
XAND2_11677 N16879 N16045 N16478 and 
XAND2_11678 N16880 N16478 N1132 and 
XAND3_11743 N17011 N16866 N12681 N12692 and 
XAND3_11744 N17012 N16866 N12756 N12767 and 
XAND3_11745 N17013 N16866 N12779 N12790 and 
XAND3_11747 N17016 N16866 N12801 N12812 and 
XAND2_11758 N17040 N16817 N16079 and 
XAND2_11759 N17041 N16831 N16675 and 
XAND2_11769 N17064 N16844 N16139 and 
XAND2_11770 N17065 N16857 N16703 and 
XAND3_11792 N17114 N16979 N1603 N11755 and 
XAND2_11795 N17125 N16817 N17018 and 
XAND2_11796 N17126 N16817 N17020 and 
XAND2_11797 N17127 N16817 N17022 and 
XAND2_11800 N17139 N16844 N17044 and 
XAND2_11801 N17140 N16844 N17046 and 
XAND2_11802 N17141 N16844 N17048 and 
XAND3_11803 N17146 N16932 N11761 N13108 and 
XAND3_11804 N17147 N16967 N11777 N13130 and 
XAND2_11820 N17173 N17115 N17023 and 
XAND2_11821 N17174 N17116 N17023 and 
XAND2_11822 N17175 N16940 N17023 and 
XAND2_11823 N17176 N15418 N17023 and 
XAND2_11825 N17178 N17130 N17049 and 
XAND2_11826 N17179 N17131 N17049 and 
XAND2_11827 N17180 N16958 N17049 and 
XAND2_11828 N17181 N15573 N17049 and 
XAND3_11834 N17187 N17037 N11761 N13108 and 
XAND3_11835 N17188 N17034 N11761 N13108 and 
XAND3_11836 N17189 N17031 N11761 N13108 and 
XAND3_11838 N17196 N17060 N11777 N13130 and 
XAND3_11839 N17197 N17057 N11777 N13130 and 
XAND3_11844 N17207 N17028 N11793 N13158 and 
XAND3_11845 N17208 N17054 N11807 N13180 and 
XAND3_11879 N17338 N17190 N11185 N12692 and 
XAND3_11880 N17339 N17198 N12681 N12692 and 
XAND3_11881 N17340 N17190 N11247 N12767 and 
XAND3_11882 N17341 N17198 N12756 N12767 and 
XAND3_11883 N17342 N17190 N11327 N12790 and 
XAND3_11884 N17349 N17198 N12779 N12790 and 
XAND3_11885 N17357 N17198 N12801 N12812 and 
XAND3_11887 N17364 N17190 N11351 N12812 and 
XAND3_11914 N17433 N17310 N12653 N12664 and 
XAND3_11915 N17434 N17304 N11161 N12664 and 
XAND3_11917 N17436 N17270 N11185 N12692 and 
XAND3_11918 N17437 N17288 N12681 N12692 and 
XAND3_11919 N17438 N17276 N11185 N12692 and 
XAND3_11920 N17439 N17294 N12681 N12692 and 
XAND3_11921 N17440 N17282 N11185 N12692 and 
XAND3_11922 N17441 N17310 N12728 N12739 and 
XAND3_11923 N17442 N17304 N11223 N12739 and 
XAND3_11925 N17444 N17270 N11247 N12767 and 
XAND3_11926 N17445 N17288 N12756 N12767 and 
XAND3_11927 N17446 N17276 N11247 N12767 and 
XAND3_11928 N17447 N17294 N12756 N12767 and 
XAND3_11929 N17448 N17282 N11247 N12767 and 
XAND3_11931 N17450 N17310 N13041 N13052 and 
XAND3_11932 N17451 N17304 N11697 N13052 and 
XAND3_11933 N17452 N17294 N12779 N12790 and 
XAND3_11934 N17453 N17282 N11327 N12790 and 
XAND3_11935 N17454 N17288 N12779 N12790 and 
XAND3_11936 N17455 N17276 N11327 N12790 and 
XAND3_11937 N17456 N17270 N11327 N12790 and 
XAND3_11938 N17457 N17310 N13075 N13086 and 
XAND3_11939 N17458 N17304 N11731 N13086 and 
XAND3_11940 N17459 N17294 N12801 N12812 and 
XAND3_11941 N17460 N17282 N11351 N12812 and 
XAND3_11942 N17461 N17288 N12801 N12812 and 
XAND3_11943 N17462 N17276 N11351 N12812 and 
XAND3_11944 N17463 N17270 N11351 N12812 and 
XAND3_11945 N17464 N17250 N1603 N1599 and 
XAND2_11957 N17479 N17301 N13068 and 
XAND3_11958 N17481 N17245 N11793 N13158 and 
XAND3_11959 N17482 N17242 N11793 N13158 and 
XAND3_11960 N17483 N17239 N11793 N13158 and 
XAND3_11961 N17484 N17236 N11793 N13158 and 
XAND3_11962 N17485 N17263 N11807 N13180 and 
XAND3_11963 N17486 N17260 N11807 N13180 and 
XAND3_11964 N17487 N17257 N11807 N13180 and 
XAND3_11965 N17488 N17250 N11807 N13180 and 
XAND9_11972 N17503 N17105 N17166 N17167 N17168 N17169 N17424 N17425 N17426 
+ N17427 and 