$ Spice netlist generated by v2lvs
$ v2013.3_28.19    Tue Sep 3 16:44:15 PDT 2013

.SUBCKT c5315 N1 N4 N11 N14 N17 N20 N23 N24 N25 N26 N27 N31 N34 N37 N40 N43 N46 
+ N49 N52 N53 N54 N61 N64 N67 N70 N73 N76 N79 N80 N81 N82 N83 N86 N87 N88 N91 
+ N94 N97 N100 N103 N106 N109 N112 N113 N114 N115 N116 N117 N118 N119 N120 N121 
+ N122 N123 N126 N127 N128 N129 N130 N131 N132 N135 N136 N137 N140 N141 N145 
+ N146 N149 N152 N155 N158 N161 N164 N167 N170 N173 N176 N179 N182 N185 N188 
+ N191 N194 N197 N200 N203 N206 N209 N210 N217 N218 N225 N226 N233 N234 N241 
+ N242 N245 N248 N251 N254 N257 N264 N265 N272 N273 N280 N281 N288 N289 N292 
+ N293 N299 N302 N307 N308 N315 N316 N323 N324 N331 N332 N335 N338 N341 N348 
+ N351 N358 N361 N366 N369 N372 N373 N374 N386 N389 N400 N411 N422 N435 N446 
+ N457 N468 N479 N490 N503 N514 N523 N534 N545 N549 N552 N556 N559 N562 N566 
+ N571 N574 N577 N580 N583 N588 N591 N592 N595 N596 N597 N598 N599 N603 N607 
+ N610 N613 N616 N619 N625 N631 N709 N816 N1066 N1137 N1138 N1139 N1140 N1141 
+ N1142 N1143 N1144 N1145 N1147 N1152 N1153 N1154 N1155 N1972 N2054 N2060 N2061 
+ N2139 N2142 N2309 N2387 N2527 N2584 N2590 N2623 N3357 N3358 N3359 N3360 N3604 
+ N3613 N4272 N4275 N4278 N4279 N4737 N4738 N4739 N4740 N5240 N5388 N6641 N6643 
+ N6646 N6648 N6716 N6877 N6924 N6925 N6926 N6927 N7015 N7363 N7365 N7432 N7449 
+ N7465 N7466 N7467 N7469 N7470 N7471 N7472 N7473 N7474 N7476 N7503 N7504 N7506 
+ N7511 N7515 N7516 N7517 N7518 N7519 N7520 N7521 N7522 N7600 N7601 N7602 N7603 
+ N7604 N7605 N7606 N7607 N7626 N7698 N7699 N7700 N7701 N7702 N7703 N7704 N7705 
+ N7706 N7707 N7735 N7736 N7737 N7738 N7739 N7740 N7741 N7742 N7754 N7755 N7756 
+ N7757 N7758 N7759 N7760 N7761 N8075 N8076 N8123 N8124 N8127 N8128 
XAND2_3 N1042 N135 N631 and 
XAND2_13 N1140 N552 N562 and 
XAND2_20 N1147 N141 N145 and 
XAND2_23 N1150 N1043 N27 and 
XAND2_24 N1151 N386 N556 and 
XAND4_29 N1156 N386 N559 N556 N552 and 
XAND2_71 N1475 N27 N31 and 
XAND2_97 N1583 N31 N27 and 
XAND2_192 N2054 N136 N1148 and 
XAND2_198 N2349 N1104 N514 and 
XAND3_203 N2585 N170 N1161 N1173 and 
XAND3_204 N2586 N173 N1161 N1173 and 
XAND3_205 N2587 N167 N1161 N1173 and 
XAND3_206 N2588 N164 N1161 N1173 and 
XAND3_207 N2589 N161 N1161 N1173 and 
XAND3_209 N2591 N185 N1185 N1197 and 
XAND3_210 N2592 N158 N1185 N1197 and 
XAND3_211 N2593 N152 N1185 N1197 and 
XAND3_212 N2594 N146 N1185 N1197 and 
XAND3_213 N2595 N170 N1223 N1235 and 
XAND3_214 N2596 N173 N1223 N1235 and 
XAND3_215 N2597 N167 N1223 N1235 and 
XAND3_216 N2598 N164 N1223 N1235 and 
XAND3_217 N2599 N161 N1223 N1235 and 
XAND3_218 N2600 N185 N1247 N1259 and 
XAND3_219 N2601 N158 N1247 N1259 and 
XAND3_220 N2602 N152 N1247 N1259 and 
XAND3_221 N2603 N146 N1247 N1259 and 
XAND3_222 N2604 N106 N1731 N1743 and 
XAND3_223 N2605 N61 N1327 N1339 and 
XAND3_224 N2606 N106 N1697 N1709 and 
XAND3_225 N2607 N49 N1697 N1709 and 
XAND3_226 N2608 N103 N1697 N1709 and 
XAND3_227 N2609 N40 N1697 N1709 and 
XAND3_228 N2610 N37 N1697 N1709 and 
XAND3_229 N2611 N20 N1327 N1339 and 
XAND3_230 N2612 N17 N1327 N1339 and 
XAND3_231 N2613 N70 N1327 N1339 and 
XAND3_232 N2614 N64 N1327 N1339 and 
XAND3_233 N2615 N49 N1731 N1743 and 
XAND3_234 N2616 N103 N1731 N1743 and 
XAND3_235 N2617 N40 N1731 N1743 and 
XAND3_236 N2618 N37 N1731 N1743 and 
XAND3_237 N2619 N20 N1351 N1363 and 
XAND3_238 N2620 N17 N1351 N1363 and 
XAND3_239 N2621 N70 N1351 N1363 and 
XAND3_240 N2622 N64 N1351 N1363 and 
XAND3_242 N2624 N123 N1758 N599 and 
XAND2_243 N2625 N1777 N1785 and 
XAND3_244 N2626 N61 N1351 N1363 and 
XAND2_245 N2627 N1761 N1769 and 
XAND3_271 N2703 N179 N1185 N1197 and 
XAND3_292 N2778 N179 N1247 N1259 and 
XAND3_305 N2831 N1104 N457 N1378 and 
XAND3_306 N2832 N1104 N468 N1384 and 
XAND3_307 N2833 N1104 N422 N1390 and 
XAND3_308 N2834 N1104 N435 N1396 and 
XAND2_309 N2835 N1067 N1375 and 
XAND2_310 N2836 N1067 N1381 and 
XAND2_311 N2837 N1067 N1387 and 
XAND2_312 N2838 N1067 N1393 and 
XAND3_321 N2847 N1104 N389 N1418 and 
XAND3_322 N2848 N1104 N400 N1424 and 
XAND3_323 N2849 N1104 N411 N1430 and 
XAND3_324 N2850 N1104 N374 N1436 and 
XAND2_325 N2851 N1067 N1415 and 
XAND2_326 N2852 N1067 N1421 and 
XAND2_327 N2853 N1067 N1427 and 
XAND2_328 N2854 N1067 N1433 and 
XAND2_331 N2867 N292 N1455 and 
XAND2_332 N2868 N288 N1455 and 
XAND2_333 N2869 N280 N1455 and 
XAND2_334 N2870 N272 N1455 and 
XAND2_335 N2871 N264 N1455 and 
XAND2_336 N2872 N241 N1462 and 
XAND2_337 N2873 N233 N1462 and 
XAND2_338 N2874 N225 N1462 and 
XAND2_339 N2875 N217 N1462 and 
XAND2_340 N2876 N209 N1462 and 
XAND2_350 N2907 N1303 N1495 and 
XAND3_351 N2908 N1303 N479 N1501 and 
XAND3_352 N2909 N1303 N490 N1507 and 
XAND2_353 N2910 N1663 N1492 and 
XAND2_354 N2911 N1663 N1498 and 
XAND2_355 N2912 N1663 N1504 and 
XAND3_362 N2919 N1104 N503 N1513 and 
XAND3_364 N2921 N1104 N523 N1519 and 
XAND3_365 N2922 N1104 N534 N1525 and 
XAND2_366 N2923 N1067 N1510 and 
XAND2_367 N2924 N1067 N1516 and 
XAND2_368 N2925 N1067 N1522 and 
XAND3_377 N2934 N1303 N389 N1545 and 
XAND3_378 N2935 N1303 N400 N1551 and 
XAND3_379 N2936 N1303 N411 N1557 and 
XAND3_380 N2937 N1303 N374 N1563 and 
XAND2_381 N2938 N1663 N1542 and 
XAND2_382 N2939 N1663 N1548 and 
XAND2_383 N2940 N1663 N1554 and 
XAND2_384 N2941 N1663 N1560 and 
XAND2_387 N2954 N372 N1566 and 
XAND2_388 N2955 N366 N1566 and 
XAND2_389 N2956 N358 N1566 and 
XAND2_390 N2957 N348 N1566 and 
XAND2_391 N2958 N338 N1566 and 
XAND2_392 N2959 N331 N1573 and 
XAND2_393 N2960 N323 N1573 and 
XAND2_394 N2961 N315 N1573 and 
XAND2_395 N2962 N307 N1573 and 
XAND2_396 N2963 N299 N1573 and 
XAND2_398 N2969 N83 N1588 and 
XAND2_399 N2970 N86 N1588 and 
XAND2_400 N2971 N88 N1588 and 
XAND2_401 N2972 N88 N1588 and 
XAND3_408 N2979 N1315 N503 N1597 and 
XAND2_409 N2980 N1315 N514 and 
XAND3_410 N2981 N1315 N523 N1603 and 
XAND3_411 N2982 N1315 N534 N1609 and 
XAND2_412 N2983 N1675 N1594 and 
XAND2_414 N2985 N1675 N1600 and 
XAND2_415 N2986 N1675 N1606 and 
XAND2_422 N2993 N1315 N1615 and 
XAND3_423 N2994 N1315 N479 N1621 and 
XAND3_424 N2995 N1315 N490 N1627 and 
XAND2_425 N2996 N1675 N1612 and 
XAND2_426 N2997 N1675 N1618 and 
XAND2_427 N2998 N1675 N1624 and 
XAND2_434 N3013 N1315 N1630 and 
XAND2_435 N3014 N1315 N1633 and 
XAND3_444 N3023 N1303 N457 N1639 and 
XAND3_445 N3024 N1303 N468 N1645 and 
XAND3_446 N3025 N1303 N422 N1651 and 
XAND3_447 N3026 N1303 N435 N1657 and 
XAND2_448 N3027 N1663 N1636 and 
XAND2_449 N3028 N1663 N1642 and 
XAND2_450 N3029 N1663 N1648 and 
XAND2_451 N3030 N1663 N1654 and 
XAND2_462 N3071 N97 N1721 and 
XAND2_463 N3072 N94 N1721 and 
XAND2_464 N3073 N97 N1721 and 
XAND2_465 N3074 N94 N1721 and 
XAND3_495 N3401 N457 N1092 N2824 and 
XAND3_496 N3402 N468 N1092 N2826 and 
XAND3_497 N3403 N422 N1092 N2828 and 
XAND3_498 N3404 N435 N1092 N2830 and 
XAND2_499 N3405 N1080 N2823 and 
XAND2_500 N3406 N1080 N2825 and 
XAND2_501 N3407 N1080 N2827 and 
XAND2_502 N3408 N1080 N2829 and 
XAND3_503 N3409 N389 N1092 N2840 and 
XAND3_504 N3410 N400 N1092 N2842 and 
XAND3_505 N3411 N411 N1092 N2844 and 
XAND3_506 N3412 N374 N1092 N2846 and 
XAND2_507 N3413 N1080 N2839 and 
XAND2_508 N3414 N1080 N2841 and 
XAND2_509 N3415 N1080 N2843 and 
XAND2_510 N3416 N1080 N2845 and 
XAND2_511 N3444 N1280 N2902 and 
XAND3_512 N3445 N479 N1280 N2904 and 
XAND3_513 N3446 N490 N1280 N2906 and 
XAND2_514 N3447 N1685 N2901 and 
XAND2_515 N3448 N1685 N2903 and 
XAND2_516 N3449 N1685 N2905 and 
XAND3_517 N3450 N503 N1092 N2914 and 
XAND3_518 N3451 N523 N1092 N2916 and 
XAND3_519 N3452 N534 N1092 N2918 and 
XAND2_520 N3453 N1080 N2913 and 
XAND2_521 N3454 N1080 N2915 and 
XAND2_522 N3455 N1080 N2917 and 
XAND2_523 N3456 N2920 N2350 and 
XAND3_524 N3459 N389 N1280 N2927 and 
XAND3_525 N3460 N400 N1280 N2929 and 
XAND3_526 N3461 N411 N1280 N2931 and 
XAND3_527 N3462 N374 N1280 N2933 and 
XAND2_528 N3463 N1685 N2926 and 
XAND2_529 N3464 N1685 N2928 and 
XAND2_530 N3465 N1685 N2930 and 
XAND2_531 N3466 N1685 N2932 and 
XAND3_532 N3481 N503 N1292 N2974 and 
XAND3_534 N3483 N523 N1292 N2976 and 
XAND3_535 N3484 N534 N1292 N2978 and 
XAND2_536 N3485 N1271 N2973 and 
XAND2_537 N3486 N1271 N2975 and 
XAND2_538 N3487 N1271 N2977 and 
XAND2_539 N3488 N1292 N2988 and 
XAND3_540 N3489 N479 N1292 N2990 and 
XAND3_541 N3490 N490 N1292 N2992 and 
XAND2_542 N3491 N1271 N2987 and 
XAND2_543 N3492 N1271 N2989 and 
XAND2_544 N3493 N1271 N2991 and 
XAND2_545 N3502 N1292 N2999 and 
XAND2_546 N3503 N1292 N3006 and 
XAND3_547 N3504 N457 N1280 N3016 and 
XAND3_548 N3505 N468 N1280 N3018 and 
XAND3_549 N3506 N422 N1280 N3020 and 
XAND3_550 N3507 N435 N1280 N3022 and 
XAND2_551 N3508 N1685 N3015 and 
XAND2_552 N3509 N1685 N3017 and 
XAND2_553 N3510 N1685 N3019 and 
XAND2_554 N3511 N1685 N3021 and 
XAND2_573 N3614 N2882 N2891 and 
XAND2_574 N3615 N1482 N2891 and 
XAND3_575 N3616 N200 N2653 N1173 and 
XAND3_576 N3617 N203 N2653 N1173 and 
XAND3_577 N3618 N197 N2653 N1173 and 
XAND3_578 N3619 N194 N2653 N1173 and 
XAND3_579 N3620 N191 N2653 N1173 and 
XAND3_580 N3621 N182 N2681 N1197 and 
XAND3_581 N3622 N188 N2681 N1197 and 
XAND3_582 N3623 N155 N2681 N1197 and 
XAND3_583 N3624 N149 N2681 N1197 and 
XAND2_584 N3625 N2882 N2891 and 
XAND2_585 N3626 N1482 N2891 and 
XAND3_586 N3627 N200 N2728 N1235 and 
XAND3_587 N3628 N203 N2728 N1235 and 
XAND3_588 N3629 N197 N2728 N1235 and 
XAND3_589 N3630 N194 N2728 N1235 and 
XAND3_590 N3631 N191 N2728 N1235 and 
XAND3_591 N3632 N182 N2756 N1259 and 
XAND3_592 N3633 N188 N2756 N1259 and 
XAND3_593 N3634 N155 N2756 N1259 and 
XAND3_594 N3635 N149 N2756 N1259 and 
XAND2_595 N3636 N2882 N2891 and 
XAND2_596 N3637 N1482 N2891 and 
XAND3_597 N3638 N109 N3075 N1743 and 
XAND2_598 N3639 N2882 N2891 and 
XAND2_599 N3640 N1482 N2891 and 
XAND3_600 N3641 N11 N2779 N1339 and 
XAND3_601 N3642 N109 N3041 N1709 and 
XAND3_602 N3643 N46 N3041 N1709 and 
XAND3_603 N3644 N100 N3041 N1709 and 
XAND3_604 N3645 N91 N3041 N1709 and 
XAND3_605 N3646 N43 N3041 N1709 and 
XAND3_606 N3647 N76 N2779 N1339 and 
XAND3_607 N3648 N73 N2779 N1339 and 
XAND3_608 N3649 N67 N2779 N1339 and 
XAND3_609 N3650 N14 N2779 N1339 and 
XAND3_610 N3651 N46 N3075 N1743 and 
XAND3_611 N3652 N100 N3075 N1743 and 
XAND3_612 N3653 N91 N3075 N1743 and 
XAND3_613 N3654 N43 N3075 N1743 and 
XAND3_614 N3655 N76 N2801 N1363 and 
XAND3_615 N3656 N73 N2801 N1363 and 
XAND3_616 N3657 N67 N2801 N1363 and 
XAND3_617 N3658 N14 N2801 N1363 and 
XAND3_618 N3659 N120 N3119 N1785 and 
XAND3_619 N3660 N11 N2801 N1363 and 
XAND3_620 N3661 N118 N3097 N1769 and 
XAND3_621 N3662 N176 N2681 N1197 and 
XAND3_622 N3663 N176 N2756 N1259 and 
XAND2_639 N3680 N289 N2855 and 
XAND2_640 N3681 N281 N2855 and 
XAND2_641 N3682 N273 N2855 and 
XAND2_642 N3683 N265 N2855 and 
XAND2_643 N3684 N257 N2855 and 
XAND2_644 N3685 N234 N2861 and 
XAND2_645 N3686 N226 N2861 and 
XAND2_646 N3687 N218 N2861 and 
XAND2_647 N3688 N210 N2861 and 
XAND2_648 N3689 N206 N2861 and 
XAND2_670 N3723 N369 N2942 and 
XAND2_671 N3724 N361 N2942 and 
XAND2_672 N3725 N351 N2942 and 
XAND2_673 N3726 N341 N2942 and 
XAND2_674 N3727 N324 N2948 and 
XAND2_675 N3728 N316 N2948 and 
XAND2_676 N3729 N308 N2948 and 
XAND2_677 N3730 N302 N2948 and 
XAND2_678 N3731 N293 N2948 and 
XAND2_680 N3738 N83 N2964 and 
XAND2_681 N3739 N87 N2964 and 
XAND2_682 N3740 N34 N2964 and 
XAND2_683 N3741 N34 N2964 and 
XAND3_700 N3758 N1315 N446 N3003 and 
XAND3_702 N3760 N1315 N446 N3010 and 
XAND2_703 N3761 N1675 N3000 and 
XAND2_704 N3762 N1675 N3007 and 
XAND3_717 N3781 N117 N3097 N1769 and 
XAND3_718 N3782 N126 N3097 N1769 and 
XAND3_719 N3783 N127 N3097 N1769 and 
XAND3_720 N3784 N128 N3097 N1769 and 
XAND3_721 N3785 N131 N3119 N1785 and 
XAND3_722 N3786 N129 N3119 N1785 and 
XAND3_723 N3787 N119 N3119 N1785 and 
XAND3_724 N3788 N130 N3119 N1785 and 
XAND3_728 N3800 N122 N3147 N1800 and 
XAND3_729 N3801 N113 N3147 N1800 and 
XAND3_730 N3802 N53 N3147 N1800 and 
XAND3_731 N3803 N114 N3147 N1800 and 
XAND3_732 N3804 N115 N3147 N1800 and 
XAND3_733 N3805 N52 N3169 N1814 and 
XAND3_734 N3806 N112 N3169 N1814 and 
XAND3_735 N3807 N116 N3169 N1814 and 
XAND3_736 N3808 N121 N3169 N1814 and 
XAND3_737 N3809 N123 N3169 N1814 and 
XAND2_740 N3816 N3482 N2984 and 
XAND3_790 N3980 N446 N1292 N3754 and 
XAND3_791 N3981 N446 N1292 N3756 and 
XAND2_792 N3982 N1271 N3753 and 
XAND2_793 N3983 N1271 N3755 and 
XAND3_800 N3998 N3456 N3119 N3130 and 
XAND2_806 N4031 N3828 N1583 and 
XAND3_807 N4032 N24 N2882 N3691 and 
XAND3_808 N4033 N25 N1482 N3691 and 
XAND3_809 N4034 N26 N2882 N3691 and 
XAND3_810 N4035 N81 N1482 N3691 and 
XAND2_811 N4036 N3829 N1583 and 
XAND3_812 N4037 N79 N2882 N3691 and 
XAND3_813 N4038 N23 N1482 N3691 and 
XAND3_814 N4039 N82 N2882 N3691 and 
XAND3_815 N4040 N80 N1482 N3691 and 
XAND2_816 N4041 N3830 N1583 and 
XAND2_817 N4042 N3831 N1583 and 
XAND2_818 N4067 N3732 N514 and 
XAND2_819 N4080 N514 N3732 and 
XAND2_820 N4088 N3834 N3668 and 
XAND2_821 N4091 N3835 N3669 and 
XAND2_822 N4094 N3836 N3670 and 
XAND2_823 N4097 N3837 N3671 and 
XAND2_824 N4100 N3838 N3676 and 
XAND2_825 N4103 N3839 N3677 and 
XAND2_826 N4106 N3840 N3678 and 
XAND2_827 N4109 N3841 N3679 and 
XAND2_828 N4144 N3908 N3703 and 
XAND2_829 N4147 N3909 N3704 and 
XAND2_831 N4153 N3914 N3711 and 
XAND2_832 N4156 N3915 N3712 and 
XAND2_833 N4159 N3916 N3713 and 
XAND3_840 N4196 N3775 N3771 N3035 and 
XAND3_841 N4197 N3987 N3119 N3130 and 
XAND2_842 N4198 N3920 N3722 and 
XAND2_853 N4225 N3918 N3720 and 
XAND2_854 N4228 N3919 N3721 and 
XAND2_855 N4231 N3991 N3770 and 
XAND2_856 N4234 N3917 N3719 and 
XAND2_857 N4237 N3989 N3768 and 
XAND2_858 N4240 N3990 N3769 and 
XAND2_859 N4243 N3988 N3767 and 
XAND2_860 N4246 N3976 N3746 and 
XAND2_861 N4249 N3977 N3747 and 
XAND2_862 N4252 N3975 N3745 and 
XAND2_863 N4255 N3978 N3751 and 
XAND2_864 N4258 N3979 N3752 and 
XAND2_868 N4268 N446 N3893 and 
XAND2_871 N4271 N3893 N446 and 
XAND2_880 N4280 N3887 N457 and 
XAND2_881 N4284 N3881 N468 and 
XAND2_882 N4290 N422 N3873 and 
XAND2_883 N4297 N3867 N435 and 
XAND2_884 N4298 N3861 N389 and 
XAND2_885 N4301 N3855 N400 and 
XAND2_886 N4305 N3849 N411 and 
XAND2_887 N4310 N3842 N374 and 
XAND2_888 N4316 N457 N3887 and 
XAND2_889 N4320 N468 N3881 and 
XAND2_890 N4325 N422 N3873 and 
XAND2_891 N4331 N435 N3867 and 
XAND2_892 N4332 N389 N3861 and 
XAND2_893 N4336 N400 N3855 and 
XAND2_894 N4342 N411 N3849 and 
XAND2_895 N4349 N374 N3842 and 
XAND2_899 N4379 N3956 N479 and 
XAND2_900 N4385 N490 N3948 and 
XAND2_901 N4392 N3942 N503 and 
XAND2_902 N4396 N3933 N523 and 
XAND2_903 N4400 N3927 N534 and 
XAND2_909 N4440 N479 N3956 and 
XAND2_910 N4445 N490 N3948 and 
XAND2_911 N4451 N503 N3942 and 
XAND2_912 N4456 N523 N3933 and 
XAND2_913 N4462 N534 N3927 and 
XAND3_923 N4547 N3911 N3169 N3180 and 
XAND2_991 N4737 N4273 N2877 and 
XAND2_992 N4738 N4274 N2877 and 
XAND2_993 N4739 N4276 N2877 and 
XAND2_994 N4740 N4277 N2877 and 
XAND3_995 N4741 N4150 N1758 N1755 and 
XAND2_1000 N4939 N4515 N4185 and 
XAND2_1001 N4942 N4516 N4186 and 
XAND3_1003 N4953 N4188 N3775 N3779 and 
XAND3_1004 N4954 N3771 N4191 N3780 and 
XAND3_1005 N4955 N4191 N4188 N3038 and 
XAND3_1006 N4956 N4109 N3097 N3108 and 
XAND3_1007 N4957 N4106 N3097 N3108 and 
XAND3_1008 N4958 N4103 N3097 N3108 and 
XAND3_1009 N4959 N4100 N3097 N3108 and 
XAND3_1010 N4960 N4159 N3119 N3130 and 
XAND3_1011 N4961 N4156 N3119 N3130 and 
XAND3_1022 N4978 N3793 N3789 N4206 and 
XAND3_1023 N4979 N4203 N4200 N4209 and 
XAND3_1024 N4980 N4097 N3147 N3158 and 
XAND3_1025 N4981 N4094 N3147 N3158 and 
XAND3_1026 N4982 N4091 N3147 N3158 and 
XAND3_1027 N4983 N4088 N3147 N3158 and 
XAND3_1028 N4984 N4153 N3169 N3180 and 
XAND3_1029 N4985 N4147 N3169 N3180 and 
XAND3_1030 N4986 N4144 N3169 N3180 and 
XAND3_1031 N4987 N4150 N3169 N3180 and 
XAND4_1041 N5060 N4724 N4725 N4269 N4027 and 
XAND4_1042 N5061 N4726 N4727 N3827 N4728 and 
XAND4_1043 N5062 N4729 N4730 N4731 N4732 and 
XAND4_1044 N5063 N4733 N4734 N4735 N4736 and 
XAND2_1045 N5065 N4357 N4375 and 
XAND3_1046 N5066 N4364 N4357 N4379 and 
XAND2_1047 N5067 N4418 N4436 and 
XAND3_1048 N5068 N4425 N4418 N4440 and 
XAND2_1097 N5117 N4364 N4379 and 
XAND2_1098 N5118 N4364 N4379 and 
XAND2_1099 N5119 N54 N4405 and 
XAND2_1112 N5132 N4425 N4440 and 
XAND2_1113 N5133 N4425 N4440 and 
XAND3_1137 N5163 N4200 N3793 N4976 and 
XAND3_1138 N5164 N3789 N4203 N4977 and 
XAND3_1139 N5165 N4942 N3147 N3158 and 
XAND3_1175 N5240 N5060 N5061 N4270 and 
XAND3_1237 N5388 N5062 N5063 N5241 and 
XAND2_1282 N5726 N5166 N4512 and 
XAND2_1297 N5954 N5264 N4396 and 
XAND2_1300 N6005 N5284 N4456 and 
XAND2_1301 N6006 N5284 N4456 and 
XAND2_1320 N6071 N5470 N4316 and 
XAND3_1321 N6072 N5477 N5470 N4320 and 
XAND4_1322 N6073 N5488 N5470 N4325 N5477 and 
XAND4_1323 N6074 N5562 N4357 N4385 N4364 and 
XAND2_1324 N6075 N5389 N4280 and 
XAND3_1325 N6076 N5396 N5389 N4284 and 
XAND4_1326 N6077 N5407 N5389 N4290 N5396 and 
XAND4_1327 N6078 N5624 N4418 N4445 N4425 and 
XAND4_1329 N6080 N5396 N5418 N5407 N5389 and 
XAND2_1330 N6083 N5396 N4284 and 
XAND3_1331 N6084 N5407 N4290 N5396 and 
XAND3_1332 N6085 N5418 N5407 N5396 and 
XAND2_1333 N6086 N5396 N4284 and 
XAND3_1334 N6087 N4290 N5407 N5396 and 
XAND2_1335 N6088 N5407 N4290 and 
XAND2_1336 N6089 N5418 N5407 and 
XAND2_1337 N6090 N5407 N4290 and 
XAND5_1338 N6091 N5431 N5462 N5441 N5424 N5452 and 
XAND2_1339 N6094 N5424 N4298 and 
XAND3_1340 N6095 N5431 N5424 N4301 and 
XAND4_1341 N6096 N5441 N5424 N4305 N5431 and 
XAND5_1342 N6097 N5452 N5441 N5424 N4310 N5431 and 
XAND2_1343 N6098 N5431 N4301 and 
XAND3_1344 N6099 N5441 N4305 N5431 and 
XAND4_1345 N6100 N5452 N5441 N4310 N5431 and 
XAND5_1346 N6101 N4 N5462 N5441 N5452 N5431 and 
XAND2_1347 N6102 N4305 N5441 and 
XAND3_1348 N6103 N5452 N5441 N4310 and 
XAND4_1349 N6104 N4 N5462 N5441 N5452 and 
XAND2_1350 N6105 N5452 N4310 and 
XAND3_1351 N6106 N4 N5462 N5452 and 
XAND2_1352 N6107 N4 N5462 and 
XAND4_1353 N6108 N5549 N5488 N5477 N5470 and 
XAND2_1354 N6111 N5477 N4320 and 
XAND3_1355 N6112 N5488 N4325 N5477 and 
XAND3_1356 N6113 N5549 N5488 N5477 and 
XAND2_1357 N6114 N5477 N4320 and 
XAND3_1358 N6115 N5488 N4325 N5477 and 
XAND2_1359 N6116 N5488 N4325 and 
XAND5_1360 N6117 N5555 N5536 N5520 N5506 N5498 and 
XAND2_1361 N6120 N5498 N4332 and 
XAND3_1362 N6121 N5506 N5498 N4336 and 
XAND4_1363 N6122 N5520 N5498 N4342 N5506 and 
XAND5_1364 N6123 N5536 N5520 N5498 N4349 N5506 and 
XAND2_1365 N6124 N5506 N4336 and 
XAND3_1366 N6125 N5520 N4342 N5506 and 
XAND4_1367 N6126 N5536 N5520 N4349 N5506 and 
XAND4_1368 N6127 N5555 N5520 N5506 N5536 and 
XAND2_1369 N6128 N5506 N4336 and 
XAND3_1370 N6129 N5520 N4342 N5506 and 
XAND4_1371 N6130 N5536 N5520 N4349 N5506 and 
XAND2_1372 N6131 N5520 N4342 and 
XAND3_1373 N6132 N5536 N5520 N4349 and 
XAND3_1374 N6133 N5555 N5520 N5536 and 
XAND2_1375 N6134 N5520 N4342 and 
XAND3_1376 N6135 N5536 N5520 N4349 and 
XAND2_1377 N6136 N5536 N4349 and 
XAND2_1378 N6137 N5549 N5488 and 
XAND2_1379 N6138 N5555 N5536 and 
XAND4_1381 N6140 N4364 N5573 N5562 N4357 and 
XAND3_1382 N6143 N5562 N4385 N4364 and 
XAND3_1383 N6144 N5573 N5562 N4364 and 
XAND3_1384 N6145 N4385 N5562 N4364 and 
XAND2_1385 N6146 N5562 N4385 and 
XAND2_1386 N6147 N5573 N5562 and 
XAND2_1387 N6148 N5562 N4385 and 
XAND5_1388 N6149 N5264 N4405 N5595 N5579 N5606 and 
XAND2_1389 N6152 N5579 N4067 and 
XAND3_1390 N6153 N5264 N5579 N4396 and 
XAND4_1391 N6154 N5595 N5579 N4400 N5264 and 
XAND5_1392 N6155 N5606 N5595 N5579 N4412 N5264 and 
XAND3_1393 N6156 N5595 N4400 N5264 and 
XAND4_1394 N6157 N5606 N5595 N4412 N5264 and 
XAND5_1395 N6158 N54 N4405 N5595 N5606 N5264 and 
XAND2_1396 N6159 N4400 N5595 and 
XAND3_1397 N6160 N5606 N5595 N4412 and 
XAND4_1398 N6161 N54 N4405 N5595 N5606 and 
XAND2_1399 N6162 N5606 N4412 and 
XAND3_1400 N6163 N54 N4405 N5606 and 
XAND4_1402 N6168 N5684 N5624 N4425 N4418 and 
XAND3_1403 N6171 N5624 N4445 N4425 and 
XAND3_1404 N6172 N5684 N5624 N4425 and 
XAND3_1405 N6173 N5624 N4445 N4425 and 
XAND2_1406 N6174 N5624 N4445 and 
XAND5_1407 N6175 N4477 N5671 N5655 N5284 N5634 and 
XAND2_1408 N6178 N5634 N4080 and 
XAND3_1409 N6179 N5284 N5634 N4456 and 
XAND4_1410 N6180 N5655 N5634 N4462 N5284 and 
XAND5_1411 N6181 N5671 N5655 N5634 N4469 N5284 and 
XAND3_1412 N6182 N5655 N4462 N5284 and 
XAND4_1413 N6183 N5671 N5655 N4469 N5284 and 
XAND4_1414 N6184 N4477 N5655 N5284 N5671 and 
XAND3_1415 N6185 N5655 N4462 N5284 and 
XAND4_1416 N6186 N5671 N5655 N4469 N5284 and 
XAND2_1417 N6187 N5655 N4462 and 
XAND3_1418 N6188 N5671 N5655 N4469 and 
XAND3_1419 N6189 N4477 N5655 N5671 and 
XAND2_1420 N6190 N5655 N4462 and 
XAND3_1421 N6191 N5671 N5655 N4469 and 
XAND2_1422 N6192 N5671 N4469 and 
XAND2_1423 N6193 N5684 N5624 and 
XAND2_1424 N6194 N4477 N5671 and 
XAND3_1506 N6473 N5315 N4524 N6031 and 
XAND3_1507 N6474 N6025 N5150 N6034 and 
XAND3_1508 N6475 N5324 N4532 N6037 and 
XAND3_1509 N6476 N6028 N5157 N6040 and 
XAND2_1546 N6641 N6108 N6117 and 
XAND2_1547 N6643 N6140 N6149 and 
XAND2_1548 N6646 N6168 N6175 and 
XAND2_1549 N6648 N6080 N6091 and 
XAND2_1560 N6664 N6091 N4 and 
XAND2_1574 N6693 N6149 N54 and 
XAND3_1584 N6712 N5696 N5692 N6209 and 
XAND3_1585 N6713 N6200 N6197 N6212 and 
XAND3_1586 N6714 N5707 N5703 N6215 and 
XAND3_1587 N6715 N6206 N6203 N6218 and 
XAND3_1589 N6718 N6164 N1777 N3130 and 
XAND3_1590 N6719 N5150 N5315 N6469 and 
XAND3_1591 N6720 N4524 N6025 N6470 and 
XAND3_1592 N6721 N5157 N5324 N6471 and 
XAND3_1593 N6722 N4532 N6028 N6472 and 
XAND2_1621 N6801 N6108 N6415 and 
XAND2_1622 N6802 N6427 N6140 and 
XAND2_1623 N6803 N6397 N6080 and 
XAND2_1624 N6804 N6168 N6441 and 
XAND3_1666 N6860 N6197 N5696 N6708 and 
XAND3_1667 N6861 N5692 N6200 N6709 and 
XAND3_1668 N6862 N6203 N5707 N6710 and 
XAND3_1669 N6863 N5703 N6206 N6711 and 
XAND2_1677 N6879 N6045 N6478 and 
XAND2_1678 N6880 N6478 N132 and 
XAND3_1743 N7011 N6866 N2681 N2692 and 
XAND3_1744 N7012 N6866 N2756 N2767 and 
XAND3_1745 N7013 N6866 N2779 N2790 and 
XAND3_1747 N7016 N6866 N2801 N2812 and 
XAND2_1758 N7040 N6817 N6079 and 
XAND2_1759 N7041 N6831 N6675 and 
XAND2_1769 N7064 N6844 N6139 and 
XAND2_1770 N7065 N6857 N6703 and 
XAND3_1792 N7114 N6979 N603 N1755 and 
XAND2_1795 N7125 N6817 N7018 and 
XAND2_1796 N7126 N6817 N7020 and 
XAND2_1797 N7127 N6817 N7022 and 
XAND2_1800 N7139 N6844 N7044 and 
XAND2_1801 N7140 N6844 N7046 and 
XAND2_1802 N7141 N6844 N7048 and 
XAND3_1803 N7146 N6932 N1761 N3108 and 
XAND3_1804 N7147 N6967 N1777 N3130 and 
XAND2_1820 N7173 N7115 N7023 and 
XAND2_1821 N7174 N7116 N7023 and 
XAND2_1822 N7175 N6940 N7023 and 
XAND2_1823 N7176 N5418 N7023 and 
XAND2_1825 N7178 N7130 N7049 and 
XAND2_1826 N7179 N7131 N7049 and 
XAND2_1827 N7180 N6958 N7049 and 
XAND2_1828 N7181 N5573 N7049 and 
XAND3_1834 N7187 N7037 N1761 N3108 and 
XAND3_1835 N7188 N7034 N1761 N3108 and 
XAND3_1836 N7189 N7031 N1761 N3108 and 
XAND3_1838 N7196 N7060 N1777 N3130 and 
XAND3_1839 N7197 N7057 N1777 N3130 and 
XAND3_1844 N7207 N7028 N1793 N3158 and 
XAND3_1845 N7208 N7054 N1807 N3180 and 
XAND3_1879 N7338 N7190 N1185 N2692 and 
XAND3_1880 N7339 N7198 N2681 N2692 and 
XAND3_1881 N7340 N7190 N1247 N2767 and 
XAND3_1882 N7341 N7198 N2756 N2767 and 
XAND3_1883 N7342 N7190 N1327 N2790 and 
XAND3_1884 N7349 N7198 N2779 N2790 and 
XAND3_1885 N7357 N7198 N2801 N2812 and 
XAND3_1887 N7364 N7190 N1351 N2812 and 
XAND3_1914 N7433 N7310 N2653 N2664 and 
XAND3_1915 N7434 N7304 N1161 N2664 and 
XAND3_1917 N7436 N7270 N1185 N2692 and 
XAND3_1918 N7437 N7288 N2681 N2692 and 
XAND3_1919 N7438 N7276 N1185 N2692 and 
XAND3_1920 N7439 N7294 N2681 N2692 and 
XAND3_1921 N7440 N7282 N1185 N2692 and 
XAND3_1922 N7441 N7310 N2728 N2739 and 
XAND3_1923 N7442 N7304 N1223 N2739 and 
XAND3_1925 N7444 N7270 N1247 N2767 and 
XAND3_1926 N7445 N7288 N2756 N2767 and 
XAND3_1927 N7446 N7276 N1247 N2767 and 
XAND3_1928 N7447 N7294 N2756 N2767 and 
XAND3_1929 N7448 N7282 N1247 N2767 and 
XAND3_1931 N7450 N7310 N3041 N3052 and 
XAND3_1932 N7451 N7304 N1697 N3052 and 
XAND3_1933 N7452 N7294 N2779 N2790 and 
XAND3_1934 N7453 N7282 N1327 N2790 and 
XAND3_1935 N7454 N7288 N2779 N2790 and 
XAND3_1936 N7455 N7276 N1327 N2790 and 
XAND3_1937 N7456 N7270 N1327 N2790 and 
XAND3_1938 N7457 N7310 N3075 N3086 and 
XAND3_1939 N7458 N7304 N1731 N3086 and 
XAND3_1940 N7459 N7294 N2801 N2812 and 
XAND3_1941 N7460 N7282 N1351 N2812 and 
XAND3_1942 N7461 N7288 N2801 N2812 and 
XAND3_1943 N7462 N7276 N1351 N2812 and 
XAND3_1944 N7463 N7270 N1351 N2812 and 
XAND3_1945 N7464 N7250 N603 N599 and 
XAND2_1957 N7479 N7301 N3068 and 
XAND3_1958 N7481 N7245 N1793 N3158 and 
XAND3_1959 N7482 N7242 N1793 N3158 and 
XAND3_1960 N7483 N7239 N1793 N3158 and 
XAND3_1961 N7484 N7236 N1793 N3158 and 
XAND3_1962 N7485 N7263 N1807 N3180 and 
XAND3_1963 N7486 N7260 N1807 N3180 and 
XAND3_1964 N7487 N7257 N1807 N3180 and 
XAND3_1965 N7488 N7250 N1807 N3180 and 
XAND9_1972 N7503 N7105 N7166 N7167 N7168 N7169 N7424 N7425 N7426 N7427 and 
XAND9_1973 N7504 N6640 N7110 N7170 N7171 N7172 N7428 N7429 N7430 N7431 and 
XAND2_1975 N7506 N7435 N2675 and 
XAND2_1980 N7511 N7443 N2750 and 
XAND3_1993 N7526 N7468 N3119 N3130 and 
XAND2_1997 N7530 N7402 N3068 and 
XAND2_2017 N7600 N7505 N2647 and 
XAND2_2018 N7601 N7507 N2675 and 
XAND2_2019 N7602 N7508 N2675 and 
XAND2_2020 N7603 N7509 N2675 and 
XAND2_2021 N7604 N7510 N2722 and 
XAND2_2022 N7605 N7512 N2750 and 
XAND2_2023 N7606 N7513 N2750 and 
XAND2_2024 N7607 N7514 N2750 and 
XAND2_2025 N7624 N6979 N7489 and 
XAND2_2026 N7625 N7489 N7250 and 
XAND2_2027 N7626 N1149 N7525 and 
XAND5_2028 N7631 N562 N7527 N7528 N6805 N6930 and 
XAND3_2029 N7636 N7529 N3097 N3108 and 
XAND3_2033 N7666 N7555 N2653 N2664 and 
XAND3_2034 N7667 N7531 N1161 N2664 and 
XAND3_2035 N7668 N7561 N2653 N2664 and 
XAND3_2036 N7669 N7537 N1161 N2664 and 
XAND3_2037 N7670 N7567 N2653 N2664 and 
XAND3_2038 N7671 N7543 N1161 N2664 and 
XAND3_2039 N7672 N7573 N2653 N2664 and 
XAND3_2040 N7673 N7549 N1161 N2664 and 
XAND3_2041 N7674 N7555 N2728 N2739 and 
XAND3_2042 N7675 N7531 N1223 N2739 and 
XAND3_2043 N7676 N7561 N2728 N2739 and 
XAND3_2044 N7677 N7537 N1223 N2739 and 
XAND3_2045 N7678 N7567 N2728 N2739 and 
XAND3_2046 N7679 N7543 N1223 N2739 and 
XAND3_2047 N7680 N7573 N2728 N2739 and 
XAND3_2048 N7681 N7549 N1223 N2739 and 
XAND3_2049 N7682 N7573 N3075 N3086 and 
XAND3_2050 N7683 N7549 N1731 N3086 and 
XAND3_2051 N7684 N7573 N3041 N3052 and 
XAND3_2052 N7685 N7549 N1697 N3052 and 
XAND3_2053 N7686 N7567 N3041 N3052 and 
XAND3_2054 N7687 N7543 N1697 N3052 and 
XAND3_2055 N7688 N7561 N3041 N3052 and 
XAND3_2056 N7689 N7537 N1697 N3052 and 
XAND3_2057 N7690 N7555 N3041 N3052 and 
XAND3_2058 N7691 N7531 N1697 N3052 and 
XAND3_2059 N7692 N7567 N3075 N3086 and 
XAND3_2060 N7693 N7543 N1731 N3086 and 
XAND3_2061 N7694 N7561 N3075 N3086 and 
XAND3_2062 N7695 N7537 N1731 N3086 and 
XAND3_2063 N7696 N7555 N3075 N3086 and 
XAND3_2064 N7697 N7531 N1731 N3086 and 
XAND3_2070 N7703 N1156 N7631 N245 and 
XAND2_2109 N7754 N7727 N2647 and 
XAND2_2110 N7755 N7728 N2647 and 
XAND2_2111 N7756 N7729 N2647 and 
XAND2_2112 N7757 N7730 N2647 and 
XAND2_2113 N7758 N7731 N2722 and 
XAND2_2114 N7759 N7732 N2722 and 
XAND2_2115 N7760 N7733 N2722 and 
XAND2_2116 N7761 N7734 N2722 and 
XAND3_2227 N7988 N7957 N6831 N1157 and 
XAND3_2228 N7989 N7954 N6415 N1157 and 
XAND3_2229 N7990 N7957 N7041 N566 and 
XAND3_2230 N7991 N7954 N7177 N566 and 
XAND3_2233 N7994 N7963 N6857 N1219 and 
XAND3_2234 N7995 N7960 N6441 N1219 and 
XAND3_2235 N7996 N7963 N7065 N583 and 
XAND3_2236 N7997 N7960 N7182 N583 and 
XAND2_2254 N8035 N583 N8025 and 
XAND2_2260 N8041 N566 N8037 and 
XAND2_2262 N8043 N8040 N1157 and 
XAND2_2263 N8044 N8042 N1219 and 
XAND3_2274 N8071 N8064 N1777 N3130 and 
XAND3_2275 N8072 N8061 N1761 N3108 and 
XAND2_2280 N8077 N8073 N1727 and 
XAND2_2281 N8078 N8074 N1727 and 
XAND2_2284 N8089 N8079 N3063 and 
XAND2_2285 N8090 N8082 N3063 and 
XAND2_2286 N8091 N8079 N3063 and 
XAND2_2287 N8092 N8082 N3063 and 
XAND3_2292 N8113 N8102 N2779 N2790 and 
XAND3_2293 N8114 N8099 N1327 N2790 and 
XAND3_2294 N8115 N8102 N2801 N2812 and 
XAND3_2295 N8116 N8099 N1351 N2812 and 
XAND3_2296 N8117 N8096 N2681 N2692 and 
XAND3_2297 N8118 N8093 N1185 N2692 and 
XAND3_2298 N8119 N8096 N2756 N2767 and 
XAND3_2299 N8120 N8093 N1247 N2767 and 
XAND2_2304 N8125 N8121 N2675 and 
XAND2_2305 N8126 N8122 N2750 and 
XNAND2_19 N1146 N373 N1 nand 
XNAND2_208 N2590 N1475 N140 nand 
XNAND2_555 N3512 N1923 N3031 nand 
XNAND2_556 N3513 N1920 N3032 nand 
XNAND2_557 N3514 N1929 N3033 nand 
XNAND2_558 N3515 N1926 N3034 nand 
XNAND2_559 N3558 N1947 N3141 nand 
XNAND2_560 N3559 N1944 N3142 nand 
XNAND2_561 N3560 N1953 N3143 nand 
XNAND2_562 N3561 N1950 N3144 nand 
XNAND2_563 N3562 N1959 N3145 nand 
XNAND2_564 N3563 N1956 N3146 nand 
XNAND2_566 N3605 N1935 N3194 nand 
XNAND2_567 N3606 N1932 N3195 nand 
XNAND2_568 N3607 N1941 N3196 nand 
XNAND2_569 N3608 N1938 N3197 nand 
XNAND2_570 N3609 N1965 N3198 nand 
XNAND2_571 N3610 N1962 N3199 nand 
XNAND2_713 N3771 N3512 N3513 nand 
XNAND2_714 N3775 N3514 N3515 nand 
XNAND2_725 N3789 N3558 N3559 nand 
XNAND2_726 N3793 N3560 N3561 nand 
XNAND2_727 N3797 N3562 N3563 nand 
XNAND2_738 N3810 N3607 N3608 nand 
XNAND2_739 N3813 N3605 N3606 nand 
XNAND2_743 N3823 N3200 N3203 nand 
XNAND2_744 N3824 N3609 N3610 nand 
XNAND2_804 N4024 N1968 N3822 nand 
XNAND2_866 N4264 N4024 N3823 nand 
XNAND2_974 N4701 N3813 N4223 nand 
XNAND2_975 N4702 N3810 N4224 nand 
XNAND2_977 N4721 N4021 N4263 nand 
XNAND2_997 N4856 N4212 N2712 nand 
XNAND2_998 N4908 N4215 N2718 nand 
XNAND2_1019 N4975 N4252 N4199 nand 
XNAND2_1032 N5049 N4701 N4702 nand 
XNAND2_1038 N5057 N3819 N4720 nand 
XNAND2_1040 N5059 N4264 N4267 nand 
XNAND2_1050 N5070 N4548 N2628 nand 
XNAND2_1052 N5072 N4551 N2629 nand 
XNAND2_1054 N5074 N4554 N2630 nand 
XNAND2_1056 N5076 N4557 N2631 nand 
XNAND2_1058 N5078 N4560 N2632 nand 
XNAND2_1060 N5080 N4563 N2633 nand 
XNAND2_1062 N5082 N4566 N2634 nand 
XNAND2_1064 N5084 N4569 N2635 nand 
XNAND2_1066 N5086 N4572 N2636 nand 
XNAND2_1068 N5088 N4578 N2638 nand 
XNAND2_1070 N5090 N4581 N2639 nand 
XNAND2_1072 N5092 N4584 N2640 nand 
XNAND2_1074 N5094 N4587 N2641 nand 
XNAND2_1076 N5096 N4590 N2642 nand 