$ Spice netlist generated by v2lvs
$ v2013.3_28.19    Tue Sep 3 16:44:15 PDT 2013

.SUBCKT c7552 N1 N5 N9 N12 N15 N18 N23 N26 N29 N32 N35 N38 N41 N44 N47 N50 N53 
+ N54 N55 N56 N57 N58 N59 N60 N61 N62 N63 N64 N65 N66 N69 N70 N73 N74 N75 N76 
+ N77 N78 N79 N80 N81 N82 N83 N84 N85 N86 N87 N88 N89 N94 N97 N100 N103 N106 
+ N109 N110 N111 N112 N113 N114 N115 N118 N121 N124 N127 N130 N133 N134 N135 
+ N138 N141 N144 N147 N150 N151 N152 N153 N154 N155 N156 N157 N158 N159 N160 
+ N161 N162 N163 N164 N165 N166 N167 N168 N169 N170 N171 N172 N173 N174 N175 
+ N176 N177 N178 N179 N180 N181 N182 N183 N184 N185 N186 N187 N188 N189 N190 
+ N191 N192 N193 N194 N195 N196 N197 N198 N199 N200 N201 N202 N203 N204 N205 
+ N206 N207 N208 N209 N210 N211 N212 N213 N214 N215 N216 N217 N218 N219 N220 
+ N221 N222 N223 N224 N225 N226 N227 N228 N229 N230 N231 N232 N233 N234 N235 
+ N236 N237 N238 N239 N240 N242 N245 N248 N251 N254 N257 N260 N263 N267 N271 
+ N274 N277 N280 N283 N286 N289 N293 N296 N299 N303 N307 N310 N313 N316 N319 
+ N322 N325 N328 N331 N334 N337 N340 N343 N346 N349 N352 N355 N358 N361 N364 
+ N367 N382 N241_I N387 N388 N478 N482 N484 N486 N489 N492 N501 N505 N507 N509 
+ N511 N513 N515 N517 N519 N535 N537 N539 N541 N543 N545 N547 N549 N551 N553 
+ N556 N559 N561 N563 N565 N567 N569 N571 N573 N582 N643 N707 N813 N881 N882 
+ N883 N884 N885 N889 N945 N1110 N1111 N1112 N1113 N1114 N1489 N1490 N1781 
+ N10025 N10101 N10102 N10103 N10104 N10109 N10110 N10111 N10112 N10350 N10351 
+ N10352 N10353 N10574 N10575 N10576 N10628 N10632 N10641 N10704 N10706 N10711 
+ N10712 N10713 N10714 N10715 N10716 N10717 N10718 N10729 N10759 N10760 N10761 
+ N10762 N10763 N10827 N10837 N10838 N10839 N10840 N10868 N10869 N10870 N10871 
+ N10905 N10906 N10907 N10908 N11333 N11334 N11340 N11342 N241_O 
XAND2_4 N469 N134 N133 and 
XAND4_11 N494 N162 N172 N188 N199 and 
XAND4_21 N528 N150 N184 N228 N240 and 
XAND4_41 N575 N183 N182 N185 N186 and 
XAND4_42 N578 N210 N152 N218 N230 and 
XAND2_69 N688 N382 N263 and 
XAND2_113 N886 N528 N578 and 
XAND2_114 N887 N575 N494 and 
XAND2_118 N1028 N382 N641 and 
XAND2_120 N1109 N469 N596 and 
XAND2_136 N1167 N700 N614 and 
XAND2_137 N1174 N700 N614 and 
XAND2_226 N1537 N957 N614 and 
XAND2_227 N1551 N614 N957 and 
XAND2_228 N1649 N1029 N636 and 
XAND2_234 N1781 N163 N1116 and 
XAND2_235 N1782 N170 N1125 and 
XAND2_238 N1793 N169 N1125 and 
XAND2_239 N1794 N168 N1125 and 
XAND2_240 N1795 N167 N1125 and 
XAND2_241 N1796 N166 N1136 and 
XAND2_242 N1797 N165 N1136 and 
XAND2_243 N1798 N164 N1136 and 
XAND2_246 N1811 N177 N1147 and 
XAND2_247 N1812 N176 N1147 and 
XAND2_248 N1813 N175 N1147 and 
XAND2_249 N1814 N174 N1147 and 
XAND2_250 N1815 N173 N1147 and 
XAND2_251 N1816 N157 N1160 and 
XAND2_252 N1817 N156 N1160 and 
XAND2_253 N1818 N155 N1160 and 
XAND2_254 N1819 N154 N1160 and 
XAND2_255 N1820 N153 N1160 and 
XAND2_272 N1857 N181 N1175 and 
XAND2_273 N1858 N171 N1175 and 
XAND2_274 N1859 N180 N1175 and 
XAND2_275 N1860 N179 N1175 and 
XAND2_276 N1861 N178 N1175 and 
XAND2_277 N1862 N161 N1182 and 
XAND2_278 N1863 N151 N1182 and 
XAND2_279 N1864 N160 N1182 and 
XAND2_280 N1865 N159 N1182 and 
XAND2_281 N1866 N158 N1182 and 
XAND2_306 N1926 N44 N1211 and 
XAND2_307 N1927 N41 N1211 and 
XAND2_308 N1928 N29 N1211 and 
XAND2_309 N1929 N26 N1211 and 
XAND2_310 N1930 N23 N1211 and 
XAND2_329 N1957 N209 N1233 and 
XAND2_330 N1958 N216 N1233 and 
XAND2_331 N1959 N215 N1233 and 
XAND2_332 N1960 N214 N1233 and 
XAND2_333 N1961 N213 N1244 and 
XAND2_334 N1962 N212 N1244 and 
XAND2_335 N1963 N211 N1244 and 
XAND2_337 N1966 N1222 N636 and 
XAND2_350 N1989 N642 N1249 and 
XAND2_351 N1990 N644 N1249 and 
XAND2_352 N1991 N651 N1249 and 
XAND2_353 N1992 N674 N1249 and 
XAND2_354 N1993 N660 N1249 and 
XAND2_355 N1994 N666 N1256 and 
XAND2_356 N1995 N672 N1256 and 
XAND2_357 N1996 N673 N1256 and 
XAND2_360 N2010 N47 N1263 and 
XAND2_361 N2011 N35 N1263 and 
XAND2_362 N2012 N32 N1263 and 
XAND2_363 N2013 N50 N1263 and 
XAND2_364 N2014 N66 N1263 and 
XAND2_380 N2064 N706 N1270 and 
XAND2_381 N2065 N708 N1270 and 
XAND2_382 N2066 N715 N1270 and 
XAND2_383 N2067 N721 N1270 and 
XAND2_384 N2068 N727 N1270 and 
XAND2_385 N2069 N733 N1277 and 
XAND2_386 N2070 N734 N1277 and 
XAND2_387 N2071 N742 N1277 and 
XAND2_388 N2072 N748 N1277 and 
XAND2_389 N2073 N749 N1277 and 
XAND2_431 N2277 N141 N1845 and 
XAND2_432 N2278 N147 N1845 and 
XAND2_433 N2279 N138 N1845 and 
XAND2_434 N2280 N144 N1845 and 
XAND2_435 N2281 N135 N1845 and 
XAND2_436 N2282 N141 N1851 and 
XAND2_437 N2283 N147 N1851 and 
XAND2_438 N2284 N138 N1851 and 
XAND2_439 N2285 N144 N1851 and 
XAND2_440 N2286 N135 N1851 and 
XAND2_443 N2299 N103 N1885 and 
XAND2_444 N2300 N130 N1885 and 
XAND2_445 N2301 N127 N1885 and 
XAND2_446 N2302 N124 N1885 and 
XAND2_447 N2303 N100 N1885 and 
XAND2_448 N2304 N103 N1892 and 
XAND2_449 N2305 N130 N1892 and 
XAND2_450 N2306 N127 N1892 and 
XAND2_451 N2307 N124 N1892 and 
XAND2_452 N2308 N100 N1892 and 
XAND2_455 N2321 N115 N1899 and 
XAND2_456 N2322 N118 N1899 and 
XAND2_457 N2323 N97 N1899 and 
XAND2_458 N2324 N94 N1899 and 
XAND2_459 N2325 N121 N1899 and 
XAND2_460 N2326 N115 N1906 and 
XAND2_461 N2327 N118 N1906 and 
XAND2_462 N2328 N97 N1906 and 
XAND2_463 N2329 N94 N1906 and 
XAND2_464 N2330 N121 N1906 and 
XAND2_466 N2337 N208 N1913 and 
XAND2_467 N2338 N198 N1913 and 
XAND2_468 N2339 N207 N1913 and 
XAND2_469 N2340 N206 N1913 and 
XAND2_470 N2341 N205 N1913 and 
XAND2_471 N2342 N44 N1919 and 
XAND2_472 N2343 N41 N1919 and 
XAND2_473 N2344 N29 N1919 and 
XAND2_474 N2345 N26 N1919 and 
XAND2_475 N2346 N23 N1919 and 
XAND2_487 N2358 N114 N1977 and 
XAND2_488 N2359 N113 N1977 and 
XAND2_489 N2360 N111 N1977 and 
XAND2_490 N2361 N87 N1977 and 
XAND2_491 N2362 N112 N1977 and 
XAND2_492 N2363 N88 N1983 and 
XAND2_493 N2364 N245 N1983 and 
XAND2_494 N2365 N271 N1983 and 
XAND2_495 N2366 N759 N1983 and 
XAND2_496 N2367 N70 N1983 and 
XAND2_498 N2374 N193 N1997 and 
XAND2_499 N2375 N192 N1997 and 
XAND2_500 N2376 N191 N1997 and 
XAND2_501 N2377 N190 N1997 and 
XAND2_502 N2378 N189 N1997 and 
XAND2_503 N2379 N47 N2003 and 
XAND2_504 N2380 N35 N2003 and 
XAND2_505 N2381 N32 N2003 and 
XAND2_506 N2382 N50 N2003 and 
XAND2_507 N2383 N66 N2003 and 
XAND2_510 N2396 N58 N2024 and 
XAND2_511 N2397 N77 N2024 and 
XAND2_512 N2398 N78 N2024 and 
XAND2_513 N2399 N59 N2024 and 
XAND2_514 N2400 N81 N2024 and 
XAND2_515 N2401 N80 N2031 and 
XAND2_516 N2402 N79 N2031 and 
XAND2_517 N2403 N60 N2031 and 
XAND2_518 N2404 N61 N2031 and 
XAND2_519 N2405 N62 N2031 and 
XAND2_522 N2418 N69 N2038 and 
XAND2_523 N2419 N70 N2038 and 
XAND2_524 N2420 N74 N2038 and 
XAND2_525 N2421 N76 N2038 and 
XAND2_526 N2422 N75 N2038 and 
XAND2_527 N2423 N73 N2045 and 
XAND2_528 N2424 N53 N2045 and 
XAND2_529 N2425 N54 N2045 and 
XAND2_530 N2426 N55 N2045 and 
XAND2_531 N2427 N56 N2045 and 
XAND2_532 N2428 N82 N2052 and 
XAND2_533 N2429 N65 N2052 and 
XAND2_534 N2430 N83 N2052 and 
XAND2_535 N2431 N84 N2052 and 
XAND2_536 N2432 N85 N2052 and 
XAND2_537 N2433 N64 N2058 and 
XAND2_538 N2434 N63 N2058 and 
XAND2_539 N2435 N86 N2058 and 
XAND2_540 N2436 N109 N2058 and 
XAND2_541 N2437 N110 N2058 and 
XAND2_542 N2441 N2239 N1119 and 
XAND2_543 N2442 N2240 N1119 and 
XAND2_544 N2446 N2241 N1119 and 
XAND2_545 N2450 N2242 N1119 and 
XAND2_546 N2454 N2243 N1119 and 
XAND2_547 N2458 N2244 N1132 and 
XAND2_548 N2462 N2247 N1141 and 
XAND2_549 N2466 N2248 N1141 and 
XAND2_550 N2470 N2249 N1141 and 
XAND2_551 N2474 N2250 N1141 and 
XAND2_552 N2478 N2251 N1141 and 
XAND2_553 N2482 N2252 N1154 and 
XAND2_554 N2488 N2253 N1154 and 
XAND2_555 N2496 N2254 N1154 and 
XAND2_556 N2502 N2255 N1154 and 
XAND2_557 N2508 N2256 N1154 and 
XAND2_573 N2619 N2348 N1227 and 
XAND2_574 N2626 N2349 N1227 and 
XAND2_575 N2632 N2350 N1227 and 
XAND2_576 N2638 N2351 N1227 and 
XAND2_577 N2644 N2352 N1240 and 
XAND2_592 N2728 N2347 N1227 and 
XAND2_603 N2766 N2354 N1240 and 
XAND2_604 N2769 N2353 N1240 and 
XAND2_605 N2772 N2246 N1132 and 
XAND2_606 N2775 N2245 N1132 and 
XAND2_614 N2866 N2257 N1537 and 
XAND2_615 N2867 N2257 N1537 and 
XAND2_616 N2868 N2257 N1537 and 
XAND2_617 N2869 N2257 N1537 and 
XAND2_618 N2878 N2269 N1551 and 
XAND2_619 N2913 N204 N2287 and 
XAND2_620 N2914 N203 N2287 and 
XAND2_621 N2915 N202 N2287 and 
XAND2_622 N2916 N201 N2287 and 
XAND2_623 N2917 N200 N2287 and 
XAND2_624 N2918 N235 N2293 and 
XAND2_625 N2919 N234 N2293 and 
XAND2_626 N2920 N233 N2293 and 
XAND2_627 N2921 N232 N2293 and 
XAND2_628 N2922 N231 N2293 and 
XAND2_629 N2923 N197 N2309 and 
XAND2_630 N2924 N187 N2309 and 
XAND2_631 N2925 N196 N2309 and 
XAND2_632 N2926 N195 N2309 and 
XAND2_633 N2927 N194 N2309 and 
XAND2_634 N2928 N227 N2315 and 
XAND2_635 N2929 N217 N2315 and 
XAND2_636 N2930 N226 N2315 and 
XAND2_637 N2931 N225 N2315 and 
XAND2_638 N2932 N224 N2315 and 
XAND2_639 N2933 N239 N2331 and 
XAND2_640 N2934 N229 N2331 and 
XAND2_641 N2935 N238 N2331 and 
XAND2_642 N2936 N237 N2331 and 
XAND2_643 N2937 N236 N2331 and 
XAND2_645 N3005 N223 N2368 and 
XAND2_646 N3006 N222 N2368 and 
XAND2_647 N3007 N221 N2368 and 
XAND2_648 N3008 N220 N2368 and 
XAND2_649 N3009 N219 N2368 and 
XAND2_650 N3020 N812 N2384 and 
XAND2_651 N3021 N814 N2384 and 
XAND2_652 N3022 N821 N2384 and 
XAND2_653 N3023 N827 N2384 and 
XAND2_654 N3024 N833 N2384 and 
XAND2_655 N3025 N839 N2390 and 
XAND2_656 N3026 N845 N2390 and 
XAND2_657 N3027 N853 N2390 and 
XAND2_658 N3028 N859 N2390 and 
XAND2_659 N3029 N865 N2390 and 
XAND2_660 N3032 N758 N2406 and 
XAND2_661 N3033 N759 N2406 and 
XAND2_662 N3034 N762 N2406 and 
XAND2_663 N3035 N768 N2406 and 
XAND2_664 N3036 N774 N2406 and 
XAND2_665 N3037 N780 N2412 and 
XAND2_666 N3038 N786 N2412 and 
XAND2_667 N3039 N794 N2412 and 
XAND2_668 N3040 N800 N2412 and 
XAND2_669 N3041 N806 N2412 and 
XAND2_676 N3096 N666 N2644 and 
XAND2_677 N3097 N660 N2638 and 
XAND2_678 N3101 N1189 N2632 and 
XAND2_679 N3107 N651 N2626 and 
XAND2_680 N3114 N644 N2619 and 
XAND2_681 N3122 N2523 N2257 and 
XAND2_683 N3130 N2523 N2257 and 
XAND2_685 N3134 N2523 N2257 and 
XAND2_687 N3136 N666 N2644 and 
XAND2_688 N3137 N660 N2638 and 
XAND2_689 N3140 N1189 N2632 and 
XAND2_690 N3144 N651 N2626 and 
XAND2_691 N3149 N644 N2619 and 
XAND2_692 N3155 N2533 N2269 and 
XAND2_695 N3168 N609 N2508 and 
XAND2_696 N3169 N604 N2502 and 
XAND2_697 N3173 N742 N2496 and 
XAND2_698 N3178 N734 N2488 and 
XAND2_699 N3184 N599 N2482 and 
XAND2_700 N3185 N727 N2573 and 
XAND2_701 N3189 N721 N2567 and 
XAND2_702 N3195 N715 N2561 and 
XAND2_703 N3202 N708 N2554 and 
XAND2_704 N3210 N609 N2508 and 
XAND2_705 N3211 N604 N2502 and 
XAND2_706 N3215 N742 N2496 and 
XAND2_707 N3221 N2488 N734 and 
XAND2_708 N3228 N599 N2482 and 
XAND2_709 N3229 N727 N2573 and 
XAND2_710 N3232 N721 N2567 and 
XAND2_711 N3236 N715 N2561 and 
XAND2_712 N3241 N708 N2554 and 
XAND2_735 N3361 N2761 N2478 and 
XAND2_736 N3362 N2757 N2474 and 
XAND2_737 N3363 N2753 N2470 and 
XAND2_738 N3364 N2749 N2466 and 
XAND2_739 N3365 N2745 N2462 and 
XAND2_740 N3366 N2741 N2550 and 
XAND2_741 N3367 N2737 N2546 and 
XAND2_742 N3368 N2733 N2542 and 
XAND2_743 N3369 N2729 N2538 and 
XAND2_744 N3370 N2670 N2458 and 
XAND2_745 N3371 N2666 N2454 and 
XAND2_746 N3372 N2662 N2450 and 
XAND2_747 N3373 N2658 N2446 and 
XAND2_748 N3374 N2654 N2442 and 
XAND2_749 N3375 N2988 N2650 and 
XAND2_750 N3379 N2650 N1966 and 
XAND2_752 N3381 N695 N2604 and 
XAND2_1012 N4544 N806 N3293 and 
XAND2_1013 N4545 N800 N3287 and 
XAND2_1014 N4549 N794 N3281 and 
XAND2_1015 N4555 N3273 N786 and 
XAND2_1016 N4562 N780 N3267 and 
XAND2_1017 N4563 N774 N3355 and 
XAND2_1018 N4566 N768 N3349 and 
XAND2_1019 N4570 N762 N3343 and 
XAND2_1021 N4576 N806 N3293 and 
XAND2_1022 N4577 N800 N3287 and 
XAND2_1023 N4581 N794 N3281 and 
XAND2_1024 N4586 N786 N3273 and 
XAND2_1025 N4592 N780 N3267 and 
XAND2_1026 N4593 N774 N3355 and 
XAND2_1027 N4597 N768 N3349 and 
XAND2_1028 N4603 N762 N3343 and 
XAND2_1049 N4630 N3448 N2704 and 
XAND2_1051 N4632 N3444 N2700 and 
XAND2_1053 N4634 N3440 N2696 and 
XAND2_1054 N4635 N3436 N2692 and 
XAND2_1056 N4637 N3432 N2688 and 
XAND2_1057 N4638 N3428 N3311 and 
XAND2_1058 N4639 N3424 N3307 and 
XAND2_1059 N4640 N3420 N3303 and 
XAND2_1060 N4641 N3416 N3299 and 
XAND2_1073 N4656 N865 N3410 and 
XAND2_1074 N4657 N859 N3404 and 
XAND2_1075 N4661 N853 N3398 and 
XAND2_1076 N4667 N3390 N845 and 
XAND2_1077 N4674 N839 N3384 and 
XAND2_1078 N4675 N833 N3334 and 
XAND2_1079 N4678 N827 N3328 and 
XAND2_1080 N4682 N821 N3322 and 
XAND2_1081 N4687 N814 N3315 and 
XAND2_1090 N4701 N865 N3410 and 
XAND2_1091 N4702 N859 N3404 and 
XAND2_1092 N4706 N853 N3398 and 
XAND2_1093 N4711 N845 N3390 and 
XAND2_1094 N4717 N839 N3384 and 
XAND2_1095 N4718 N833 N3334 and 
XAND2_1096 N4722 N827 N3328 and 
XAND2_1097 N4728 N821 N3322 and 
XAND2_1098 N4735 N814 N3315 and 
XAND2_1112 N4756 N3482 N3263 and 
XAND2_1113 N4757 N3478 N3259 and 
XAND2_1114 N4758 N3474 N3255 and 
XAND2_1115 N4759 N3470 N3251 and 
XAND2_1116 N4760 N3466 N3247 and 
XAND2_1118 N4762 N3462 N2615 and 
XAND2_1120 N4764 N3458 N2611 and 
XAND2_1122 N4766 N3454 N2607 and 
XAND2_1123 N4767 N2680 N3381 and 
XAND2_1125 N4769 N3340 N695 and 
XAND2_1447 N5960 N2674 N4769 and 
XAND2_1463 N5981 N2674 N4769 and 
XAND5_1750 N6762 N5683 N5670 N5654 N5640 N5632 and 
XAND2_1751 N6766 N5632 N3097 and 
XAND3_1752 N6767 N5640 N5632 N3101 and 
XAND4_1753 N6768 N5654 N5632 N3107 N5640 and 
XAND5_1754 N6769 N5670 N5654 N5632 N3114 N5640 and 
XAND2_1755 N6770 N5640 N3101 and 
XAND3_1756 N6771 N5654 N3107 N5640 and 
XAND4_1757 N6772 N5670 N5654 N3114 N5640 and 
XAND4_1758 N6773 N5683 N5654 N5640 N5670 and 
XAND2_1759 N6774 N5640 N3101 and 
XAND3_1760 N6775 N5654 N3107 N5640 and 
XAND4_1761 N6776 N5670 N5654 N3114 N5640 and 
XAND2_1762 N6777 N5654 N3107 and 
XAND3_1763 N6778 N5670 N5654 N3114 and 
XAND3_1764 N6779 N5683 N5654 N5670 and 
XAND2_1765 N6780 N5654 N3107 and 
XAND3_1766 N6781 N5670 N5654 N3114 and 
XAND2_1767 N6782 N5670 N3114 and 
XAND2_1768 N6783 N5683 N5670 and 
XAND5_1769 N6784 N5697 N5728 N5707 N5690 N5718 and 
XAND2_1770 N6787 N5690 N3137 and 
XAND3_1771 N6788 N5697 N5690 N3140 and 
XAND4_1772 N6789 N5707 N5690 N3144 N5697 and 
XAND5_1773 N6790 N5718 N5707 N5690 N3149 N5697 and 
XAND2_1774 N6791 N5697 N3140 and 
XAND3_1775 N6792 N5707 N3144 N5697 and 
XAND4_1776 N6793 N5718 N5707 N3149 N5697 and 
XAND2_1777 N6794 N3144 N5707 and 
XAND3_1778 N6795 N5718 N5707 N3149 and 
XAND2_1779 N6796 N5718 N3149 and 
XAND4_1792 N6833 N5850 N5789 N5778 N5771 and 
XAND2_1793 N6836 N5771 N3169 and 
XAND3_1794 N6837 N5778 N5771 N3173 and 
XAND4_1795 N6838 N5789 N5771 N3178 N5778 and 
XAND2_1796 N6839 N5778 N3173 and 
XAND3_1797 N6840 N5789 N3178 N5778 and 
XAND3_1798 N6841 N5850 N5789 N5778 and 
XAND2_1799 N6842 N5778 N3173 and 
XAND3_1800 N6843 N5789 N3178 N5778 and 
XAND2_1801 N6844 N5789 N3178 and 
XAND5_1802 N6845 N5856 N5837 N5821 N5807 N5799 and 
XAND2_1803 N6848 N5799 N3185 and 
XAND3_1804 N6849 N5807 N5799 N3189 and 
XAND4_1805 N6850 N5821 N5799 N3195 N5807 and 
XAND5_1806 N6851 N5837 N5821 N5799 N3202 N5807 and 
XAND2_1807 N6852 N5807 N3189 and 
XAND3_1808 N6853 N5821 N3195 N5807 and 
XAND4_1809 N6854 N5837 N5821 N3202 N5807 and 
XAND4_1810 N6855 N5856 N5821 N5807 N5837 and 
XAND2_1811 N6856 N5807 N3189 and 
XAND3_1812 N6857 N5821 N3195 N5807 and 
XAND4_1813 N6858 N5837 N5821 N3202 N5807 and 
XAND2_1814 N6859 N5821 N3195 and 
XAND3_1815 N6860 N5837 N5821 N3202 and 
XAND3_1816 N6861 N5856 N5821 N5837 and 
XAND2_1817 N6862 N5821 N3195 and 
XAND3_1818 N6863 N5837 N5821 N3202 and 
XAND2_1819 N6864 N5837 N3202 and 
XAND2_1820 N6865 N5850 N5789 and 
XAND2_1821 N6866 N5856 N5837 and 
XAND4_1822 N6867 N5870 N5892 N5881 N5863 and 
XAND2_1823 N6870 N5863 N3211 and 
XAND3_1824 N6871 N5870 N5863 N3215 and 
XAND4_1825 N6872 N5881 N5863 N3221 N5870 and 
XAND2_1826 N6873 N5870 N3215 and 
XAND3_1827 N6874 N5881 N3221 N5870 and 
XAND3_1828 N6875 N5892 N5881 N5870 and 
XAND2_1829 N6876 N5870 N3215 and 
XAND3_1830 N6877 N3221 N5881 N5870 and 
XAND2_1831 N6878 N5881 N3221 and 
XAND2_1832 N6879 N5892 N5881 and 
XAND2_1833 N6880 N5881 N3221 and 
XAND5_1834 N6881 N5905 N5936 N5915 N5898 N5926 and 
XAND2_1835 N6884 N5898 N3229 and 
XAND3_1836 N6885 N5905 N5898 N3232 and 
XAND4_1837 N6886 N5915 N5898 N3236 N5905 and 
XAND5_1838 N6887 N5926 N5915 N5898 N3241 N5905 and 
XAND2_1839 N6888 N5905 N3232 and 
XAND3_1840 N6889 N5915 N3236 N5905 and 
XAND4_1841 N6890 N5926 N5915 N3241 N5905 and 
XAND2_1842 N6891 N3236 N5915 and 
XAND3_1843 N6892 N5926 N5915 N3241 and 
XAND2_1844 N6893 N5926 N3241 and 
XAND4_1866 N7057 N6021 N6000 N5996 N5991 and 
XAND2_1867 N7060 N5991 N3362 and 
XAND3_1868 N7061 N5996 N5991 N3363 and 
XAND4_1869 N7062 N6000 N5991 N3364 N5996 and 
XAND5_1870 N7063 N6022 N6018 N6014 N6009 N6003 and 
XAND2_1871 N7064 N6003 N3366 and 
XAND3_1872 N7065 N6009 N6003 N3367 and 
XAND4_1873 N7066 N6014 N6003 N3368 N6009 and 
XAND5_1874 N7067 N6018 N6014 N6003 N3369 N6009 and 
XAND5_1884 N7100 N6059 N6056 N6052 N6047 N6041 and 
XAND2_1885 N7103 N6041 N3371 and 
XAND3_1886 N7104 N6047 N6041 N3372 and 
XAND4_1887 N7105 N6052 N6041 N3373 N6047 and 
XAND5_1888 N7106 N6056 N6052 N6041 N3374 N6047 and 
XAND2_2067 N8262 N3122 N6762 and 
XAND2_2068 N8269 N3155 N6784 and 
XAND3_2075 N8280 N5740 N5736 N6815 and 
XAND3_2076 N8281 N6800 N6797 N6818 and 
XAND3_2077 N8282 N5751 N5747 N6821 and 
XAND3_2078 N8283 N6806 N6803 N6824 and 
XAND3_2079 N8284 N5762 N5758 N6827 and 
XAND3_2080 N8285 N6812 N6809 N6830 and 
XAND2_2086 N8298 N6833 N6845 and 
XAND2_2087 N8307 N6867 N6881 and 
XAND4_2097 N8333 N6901 N6923 N6912 N6894 and 
XAND2_2098 N8337 N6894 N4545 and 
XAND3_2099 N8338 N6901 N6894 N4549 and 
XAND4_2100 N8339 N6912 N6894 N4555 N6901 and 
XAND2_2101 N8340 N6901 N4549 and 
XAND3_2102 N8341 N6912 N4555 N6901 and 
XAND3_2103 N8342 N6923 N6912 N6901 and 
XAND2_2104 N8343 N6901 N4549 and 
XAND3_2105 N8344 N4555 N6912 N6901 and 
XAND2_2106 N8345 N6912 N4555 and 
XAND2_2107 N8346 N6923 N6912 and 
XAND2_2108 N8347 N6912 N4555 and 
XAND2_2109 N8348 N6929 N4563 and 
XAND3_2110 N8349 N6936 N6929 N4566 and 
XAND4_2111 N8350 N6946 N6929 N4570 N6936 and 
XAND5_2112 N8351 N6957 N6946 N6929 N5960 N6936 and 
XAND2_2113 N8352 N6936 N4566 and 
XAND3_2114 N8353 N6946 N4570 N6936 and 
XAND4_2115 N8354 N6957 N6946 N5960 N6936 and 
XAND2_2116 N8355 N4570 N6946 and 
XAND3_2117 N8356 N6957 N6946 N5960 and 
XAND2_2118 N8357 N6957 N5960 and 
XAND4_2120 N8365 N7049 N6988 N6977 N6970 and 
XAND2_2121 N8369 N6970 N4577 and 
XAND3_2122 N8370 N6977 N6970 N4581 and 
XAND4_2123 N8371 N6988 N6970 N4586 N6977 and 
XAND2_2124 N8372 N6977 N4581 and 
XAND3_2125 N8373 N6988 N4586 N6977 and 
XAND3_2126 N8374 N7049 N6988 N6977 and 
XAND2_2127 N8375 N6977 N4581 and 
XAND3_2128 N8376 N6988 N4586 N6977 and 
XAND2_2129 N8377 N6988 N4586 and 
XAND2_2130 N8378 N6998 N4593 and 
XAND3_2131 N8379 N7006 N6998 N4597 and 
XAND4_2132 N8380 N7020 N6998 N4603 N7006 and 
XAND5_2133 N8381 N7036 N7020 N6998 N5981 N7006 and 
XAND2_2134 N8382 N7006 N4597 and 
XAND3_2135 N8383 N7020 N4603 N7006 and 
XAND4_2136 N8384 N7036 N7020 N5981 N7006 and 
XAND2_2137 N8385 N7006 N4597 and 
XAND3_2138 N8386 N7020 N4603 N7006 and 
XAND4_2139 N8387 N7036 N7020 N5981 N7006 and 
XAND2_2140 N8388 N7020 N4603 and 
XAND3_2141 N8389 N7036 N7020 N5981 and 
XAND2_2142 N8390 N7020 N4603 and 
XAND3_2143 N8391 N7036 N7020 N5981 and 
XAND2_2144 N8392 N7036 N5981 and 
XAND2_2145 N8393 N7049 N6988 and 
XAND2_2146 N8394 N7057 N7063 and 
XAND2_2147 N8404 N7057 N7826 and 
XAND4_2148 N8405 N7098 N7077 N7073 N7068 and 
XAND2_2149 N8409 N7068 N4632 and 
XAND3_2150 N8410 N7073 N7068 N4634 and 
XAND4_2151 N8411 N7077 N7068 N4635 N7073 and 
XAND5_2152 N8412 N7099 N7095 N7091 N7086 N7080 and 
XAND2_2153 N8415 N7080 N4638 and 
XAND3_2154 N8416 N7086 N7080 N4639 and 
XAND4_2155 N8417 N7091 N7080 N4640 N7086 and 
XAND5_2156 N8418 N7095 N7091 N7080 N4641 N7086 and 
XAND2_2157 N8421 N3375 N7100 and 
XAND4_2158 N8430 N7114 N7136 N7125 N7107 and 
XAND2_2159 N8433 N7107 N4657 and 
XAND3_2160 N8434 N7114 N7107 N4661 and 
XAND4_2161 N8435 N7125 N7107 N4667 N7114 and 
XAND2_2162 N8436 N7114 N4661 and 
XAND3_2163 N8437 N7125 N4667 N7114 and 
XAND3_2164 N8438 N7136 N7125 N7114 and 
XAND2_2165 N8439 N7114 N4661 and 
XAND3_2166 N8440 N4667 N7125 N7114 and 
XAND2_2167 N8441 N7125 N4667 and 
XAND2_2168 N8442 N7136 N7125 and 
XAND2_2169 N8443 N7125 N4667 and 
XAND5_2170 N8444 N7149 N7180 N7159 N7142 N7170 and 
XAND2_2171 N8447 N7142 N4675 and 
XAND3_2172 N8448 N7149 N7142 N4678 and 
XAND4_2173 N8449 N7159 N7142 N4682 N7149 and 
XAND5_2174 N8450 N7170 N7159 N7142 N4687 N7149 and 
XAND2_2175 N8451 N7149 N4678 and 
XAND3_2176 N8452 N7159 N4682 N7149 and 
XAND4_2177 N8453 N7170 N7159 N4687 N7149 and 
XAND2_2178 N8454 N4682 N7159 and 
XAND3_2179 N8455 N7170 N7159 N4687 and 
XAND2_2180 N8456 N7170 N4687 and 
XAND3_2191 N8483 N6083 N6079 N7216 and 
XAND3_2192 N8484 N7191 N7188 N7219 and 
XAND4_2193 N8485 N7301 N7240 N7229 N7222 and 
XAND2_2194 N8488 N7222 N4702 and 
XAND3_2195 N8489 N7229 N7222 N4706 and 
XAND4_2196 N8490 N7240 N7222 N4711 N7229 and 
XAND2_2197 N8491 N7229 N4706 and 
XAND3_2198 N8492 N7240 N4711 N7229 and 
XAND3_2199 N8493 N7301 N7240 N7229 and 
XAND2_2200 N8494 N7229 N4706 and 
XAND3_2201 N8495 N7240 N4711 N7229 and 
XAND2_2202 N8496 N7240 N4711 and 
XAND5_2203 N8497 N7307 N7288 N7272 N7258 N7250 and 
XAND2_2204 N8500 N7250 N4718 and 
XAND3_2205 N8501 N7258 N7250 N4722 and 
XAND4_2206 N8502 N7272 N7250 N4728 N7258 and 
XAND5_2207 N8503 N7288 N7272 N7250 N4735 N7258 and 
XAND2_2208 N8504 N7258 N4722 and 
XAND3_2209 N8505 N7272 N4728 N7258 and 
XAND4_2210 N8506 N7288 N7272 N4735 N7258 and 
XAND4_2211 N8507 N7307 N7272 N7258 N7288 and 
XAND2_2212 N8508 N7258 N4722 and 
XAND3_2213 N8509 N7272 N4728 N7258 and 
XAND4_2214 N8510 N7288 N7272 N4735 N7258 and 
XAND2_2215 N8511 N7272 N4728 and 
XAND3_2216 N8512 N7288 N7272 N4735 and 
XAND3_2217 N8513 N7307 N7272 N7288 and 
XAND2_2218 N8514 N7272 N4728 and 
XAND3_2219 N8515 N7288 N7272 N4735 and 
XAND2_2220 N8516 N7288 N4735 and 
XAND2_2221 N8517 N7301 N7240 and 
XAND2_2222 N8518 N7307 N7288 and 
XAND3_2231 N8539 N6141 N6137 N7340 and 
XAND3_2232 N8540 N7337 N7334 N7343 and 
XAND4_2233 N8541 N7376 N7355 N7351 N7346 and 
XAND2_2234 N8545 N7346 N4757 and 
XAND3_2235 N8546 N7351 N7346 N4758 and 
XAND4_2236 N8547 N7355 N7346 N4759 N7351 and 
XAND5_2237 N8548 N7377 N7373 N7369 N7364 N7358 and 
XAND2_2238 N8551 N7358 N4762 and 
XAND3_2239 N8552 N7364 N7358 N4764 and 
XAND4_2240 N8553 N7369 N7358 N4766 N7364 and 
XAND5_2241 N8554 N7373 N7369 N7358 N4767 N7364 and 
XAND3_2251 N8578 N6170 N6166 N7405 and 
XAND3_2252 N8579 N7381 N7378 N7408 and 
XAND2_2349 N8818 N7620 N3155 and 
XAND2_2350 N8840 N3122 N7609 and 
XAND3_2352 N8861 N6797 N5740 N8274 and 
XAND3_2353 N8862 N5736 N6800 N8275 and 
XAND3_2354 N8863 N6803 N5751 N8276 and 
XAND3_2355 N8864 N5747 N6806 N8277 and 
XAND3_2356 N8865 N6809 N5762 N8278 and 
XAND3_2357 N8866 N5758 N6812 N8279 and 
XAND2_2359 N8874 N6833 N7655 and 
XAND2_2360 N8878 N7671 N6867 and 
XAND2_2381 N8960 N3375 N7852 and 
XAND3_2384 N8991 N7188 N6083 N8469 and 
XAND3_2385 N8992 N6079 N7191 N8470 and 
XAND3_2390 N9024 N7334 N6141 N8537 and 
XAND3_2391 N9025 N6137 N7337 N8538 and 
XAND3_2394 N9053 N7378 N6170 N8564 and 
XAND3_2395 N9054 N6166 N7381 N8565 and 
XAND5_2473 N9280 N6936 N8326 N6946 N6929 N6957 and 
XAND5_2474 N9285 N367 N8326 N6946 N6957 N6936 and 
XAND4_2475 N9286 N367 N8326 N6946 N6957 and 
XAND3_2476 N9287 N367 N8326 N6957 and 
XAND2_2477 N9288 N367 N8326 and 
XAND5_2487 N9307 N8358 N7036 N7020 N7006 N6998 and 
XAND4_2488 N9314 N8358 N7020 N7006 N7036 and 
XAND3_2489 N9315 N8358 N7020 N7036 and 
XAND2_2490 N9318 N8358 N7036 and 
XAND2_2498 N9332 N8405 N8412 and 
XAND2_2500 N9344 N8430 N8444 and 
XAND3_2515 N9369 N7198 N7194 N8471 and 
XAND3_2516 N9370 N8460 N8457 N8474 and 
XAND3_2517 N9371 N7209 N7205 N8477 and 
XAND3_2518 N9372 N8466 N8463 N8480 and 
XAND2_2524 N9385 N8485 N8497 and 
XAND3_2529 N9396 N7318 N7314 N8525 and 
XAND3_2530 N9397 N8522 N8519 N8528 and 
XAND3_2531 N9398 N6131 N6127 N8531 and 
XAND3_2532 N9399 N7328 N7325 N8534 and 
XAND2_2537 N9408 N8541 N8548 and 
XAND3_2545 N9419 N7387 N6177 N8566 and 
XAND3_2546 N9420 N8555 N7384 N8569 and 
XAND3_2547 N9421 N7398 N7394 N8572 and 
XAND3_2548 N9422 N8561 N8558 N8575 and 
XAND2_2589 N9526 N8943 N8421 and 
XAND2_2590 N9531 N8943 N8421 and 
XAND2_2594 N9543 N8857 N8254 and 
XAND2_2595 N9551 N8871 N8288 and 
XAND2_2599 N9560 N8902 N8333 and 
XAND2_2612 N9579 N8365 N8927 and 
XAND2_2615 N9585 N8405 N8956 and 
XAND2_2616 N9591 N8966 N8430 and 
XAND3_2627 N9602 N8457 N7198 N9363 and 
XAND3_2628 N9603 N7194 N8460 N9364 and 
XAND3_2629 N9604 N8463 N7209 N9365 and 
XAND3_2630 N9605 N7205 N8466 N9366 and 
XAND2_2632 N9611 N8485 N9001 and 
XAND3_2633 N9612 N8519 N7318 N9392 and 
XAND3_2634 N9613 N7314 N8522 N9393 and 
XAND3_2635 N9614 N7325 N6131 N9394 and 
XAND3_2636 N9615 N6127 N7328 N9395 and 
XAND2_2639 N9618 N8541 N9035 and 
XAND3_2640 N9621 N7384 N7387 N9413 and 
XAND3_2641 N9622 N6177 N8555 N9414 and 
XAND3_2642 N9623 N8558 N7398 N9415 and 
XAND3_2643 N9624 N7394 N8561 N9416 and 
XAND2_2689 N9732 N9268 N8269 and 
XAND5_2691 N9734 N89 N9408 N9332 N8394 N8421 and 
XAND5_2692 N9735 N89 N9408 N9332 N8394 N8421 and 
XAND2_2693 N9736 N9265 N8262 and 
XAND2_2700 N9754 N8333 N9280 and 
XAND2_2707 N9767 N9280 N367 and 
XAND2_2712 N9775 N8365 N9307 and 
XAND4_2717 N9790 N89 N9408 N9332 N8394 and 
XAND2_2735 N9817 N9617 N9407 and 
XAND2_2780 N9932 N9575 N9773 and 
XAND2_2781 N9935 N9575 N9769 and 
XAND2_2788 N9949 N9608 N9375 and 
XAND3_2827 N10013 N9791 N8307 N8269 and 
XAND4_2828 N10014 N9758 N9344 N8307 N8269 and 
XAND5_2829 N10015 N367 N9754 N9344 N8307 N8269 and 
XAND3_2830 N10016 N9786 N8394 N8421 and 
XAND4_2831 N10017 N9820 N9332 N8394 N8421 and 
XAND3_2832 N10018 N9786 N8394 N8421 and 
XAND4_2833 N10019 N9820 N9332 N8394 N8421 and 
XAND3_2834 N10020 N9809 N8298 N8262 and 
XAND4_2835 N10021 N9779 N9385 N8298 N8262 and 
XAND5_2836 N10022 N367 N9775 N9385 N8298 N8262 and 
XAND2_2849 N10039 N9809 N8298 and 
XAND3_2850 N10040 N9779 N9385 N8298 and 
XAND4_2851 N10041 N367 N9775 N9385 N8298 and 
XAND2_2852 N10042 N9779 N9385 and 
XAND3_2853 N10043 N367 N9775 N9385 and 
XAND2_2856 N10054 N9817 N9029 and 
XAND2_2857 N10055 N9786 N8394 and 
XAND3_2858 N10056 N9820 N9332 N8394 and 
XAND2_2859 N10057 N9791 N8307 and 
XAND3_2860 N10058 N9758 N9344 N8307 and 
XAND4_2861 N10059 N367 N9754 N9344 N8307 and 
XAND2_2862 N10060 N9758 N9344 and 
XAND3_2863 N10061 N367 N9754 N9344 and 
XAND2_2881 N10105 N9925 N9894 and 
XAND2_2882 N10106 N9925 N9895 and 
XAND2_2883 N10107 N9925 N9896 and 
XAND2_2884 N10108 N9925 N8253 and 
XAND2_2895 N10130 N9768 N9925 and 
XAND2_2898 N10133 N9932 N8920 and 
XAND2_2904 N10139 N9785 N10053 and 
XAND2_2940 N10230 N9774 N10131 and 
XAND2_2956 N10266 N10026 N10124 and 
XAND2_2957 N10267 N10028 N10124 and 
XAND2_2958 N10268 N9742 N10124 and 
XAND2_2959 N10269 N6923 N10124 and 
XAND5_2964 N10278 N10141 N5728 N5707 N5718 N5697 and 
XAND4_2965 N10279 N10141 N5728 N5707 N5718 and 
XAND3_2966 N10280 N10141 N5728 N5718 and 
XAND2_2967 N10281 N10141 N5728 and 
XAND2_2968 N10282 N6784 N10141 and 
XAND5_2970 N10287 N10148 N5936 N5915 N5926 N5905 and 
XAND4_2971 N10288 N10148 N5936 N5915 N5926 and 
XAND3_2972 N10289 N10148 N5936 N5926 and 
XAND2_2973 N10290 N10148 N5936 and 
XAND2_2974 N10291 N6881 N10148 and 
XAND2_2975 N10292 N8898 N10124 and 
XAND2_2979 N10296 N8959 N10234 and 
XAND2_3014 N10354 N8857 N10270 and 
XAND4_3020 N10388 N10114 N10134 N10293 N10294 and 
XAND2_3021 N10391 N9582 N10295 and 
XAND4_3022 N10399 N10113 N10115 N10299 N10300 and 
XAND4_3023 N10402 N10155 N10161 N10306 N10307 and 
XAND2_3042 N10451 N10296 N4193 and 
XAND2_3068 N10546 N5631 N10450 and 
XAND2_3070 N10548 N10391 N8950 and 
XAND2_3071 N10549 N5165 N10367 and 
XAND2_3073 N10551 N10354 N3126 and 
XAND2_3075 N10553 N10375 N9539 and 
XAND2_3076 N10554 N10375 N9540 and 
XAND2_3077 N10555 N10375 N9541 and 
XAND2_3078 N10556 N10375 N6761 and 
XAND3_3099 N10577 N10399 N10402 N10388 and 
XAND3_3100 N10581 N10360 N9543 N10273 and 
XAND3_3101 N10582 N10357 N9905 N10273 and 
XAND2_3103 N10587 N10367 N5735 and 
XAND2_3104 N10588 N10367 N3135 and 
XAND5_3106 N10594 N10381 N7180 N7159 N7170 N7149 and 
XAND4_3107 N10595 N10381 N7180 N7159 N7170 and 
XAND3_3108 N10596 N10381 N7180 N7170 and 
XAND2_3109 N10597 N10381 N7180 and 
XAND2_3110 N10598 N8444 N10381 and 
XAND2_3118 N10629 N9733 N10547 and 
XAND2_3119 N10631 N5166 N10550 and 
XAND3_3130 N10647 N886 N887 N10577 and 
XAND3_3131 N10648 N10360 N8857 N10479 and 
XAND3_3132 N10649 N10357 N7609 N10479 and 
XAND2_3162 N10705 N3159 N10583 and 
XAND2_3164 N10707 N9737 N10589 and 
XAND2_3165 N10708 N9738 N10589 and 
XAND2_3166 N10709 N9243 N10589 and 
XAND2_3167 N10710 N5892 N10589 and 
XAND2_3179 N10730 N5178 N10583 and 
XAND2_3180 N10731 N2533 N10583 and 
XAND2_3197 N10765 N10652 N9890 and 
XAND2_3198 N10766 N10652 N9891 and 
XAND2_3199 N10767 N10652 N9892 and 
XAND2_3200 N10768 N10652 N8252 and 
XAND2_3246 N10864 N10023 N10784 and 
XAND2_3247 N10865 N10024 N10784 and 
XAND2_3248 N10866 N9739 N10784 and 
XAND2_3249 N10867 N7136 N10784 and 
XAND3_3402 N11152 N11103 N8871 N10283 and 
XAND3_3403 N11153 N11100 N7655 N10283 and 
XAND3_3404 N11154 N11103 N9551 N10119 and 
XAND3_3405 N11155 N11100 N9917 N10119 and 
XAND3_3433 N11222 N11159 N9575 N1218 and 
XAND3_3434 N11223 N11156 N8927 N1218 and 
XAND3_3435 N11224 N11159 N9935 N750 and 
XAND3_3436 N11225 N11156 N10132 N750 and 
XAND3_3437 N11226 N11165 N9608 N10497 and 
XAND3_3438 N11227 N11162 N9001 N10497 and 
XAND3_3439 N11228 N11165 N9949 N10301 and 
XAND3_3440 N11229 N11162 N10160 N10301 and 
XAND2_3466 N11278 N10273 N11260 and 
XAND2_3468 N11280 N10119 N11262 and 
XAND2_3474 N11288 N11277 N10479 and 
XAND2_3475 N11289 N11279 N10283 and 
XAND2_3484 N11298 N10301 N11293 and 
XAND2_3488 N11308 N11296 N1218 and 
XAND2_3489 N11309 N11297 N10497 and 
XAND2_3494 N11316 N750 N11307 and 
XNAND2_53 N628 N12 N9 nand 
XNAND2_54 N632 N12 N9 nand 